* NGSPICE file created from array_multiplier_pex.ext - technology: sky130B

.subckt array_multiplier A[0],A[1],A[2],A[3] B[0],B[1],B[2],B[3] VDD VSS Y[0],Y[1],Y[2],Y[3],Y[4],Y[5],Y[6],Y[7]
X0 a_16803_n2942.t3 a_16213_n2505.t7 VSS.t95 VSS sky130_fd_pr__nfet_01v8 ad=0p pd=0u as=0p ps=0u w=1e+06u l=300000u
X1 VDD.t641 a_6818_316.t8 a_32246_4888.t2 VDD.t640 sky130_fd_pr__pfet_01v8 ad=0p pd=0u as=0p ps=0u w=1e+06u l=300000u
X2 a_13367_404.t4 a_12822_1097.t4 a_13249_404.t1 VDD.t397 sky130_fd_pr__pfet_01v8 ad=0p pd=0u as=0p ps=0u w=2e+06u l=300000u
X3 VDD.t262 a_16227_42.t7 a_16817_n395.t3 VDD.t261 sky130_fd_pr__pfet_01v8 ad=0p pd=0u as=0p ps=0u w=1e+06u l=300000u
X4 a_7112_290.t3 a_2969_1600.t4 VDD.t399 VDD.t398 sky130_fd_pr__pfet_01v8 ad=0p pd=0u as=0p ps=0u w=1e+06u l=300000u
X5 a_13367_404.t1 a_12822_1097.t5 a_13367_n328.t0 VSS sky130_fd_pr__nfet_01v8 ad=0p pd=0u as=0p ps=0u w=2e+06u l=300000u
X6 a_24630_404.t7 a_19826_n3212.t4 VDD.t202 VDD.t201 sky130_fd_pr__pfet_01v8 ad=0p pd=0u as=0p ps=0u w=2e+06u l=300000u
X7 a_10918_n4773.t3 a_7414_n7824.t4 VDD.t1570 VDD.t1569 sky130_fd_pr__pfet_01v8 ad=0p pd=0u as=0p ps=0u w=1e+06u l=300000u
X8 a_18425_3168.t3 a_16817_n395.t4 a_18543_3168.t2 VDD.t1611 sky130_fd_pr__pfet_01v8 ad=0p pd=0u as=0p ps=0u w=2e+06u l=300000u
X9 a_3619_1189.t3 a_3029_1626.t7 VDD.t350 VDD.t349 sky130_fd_pr__pfet_01v8 ad=0p pd=0u as=0p ps=0u w=1e+06u l=300000u
X10 Y[3].t6 a_30337_n7043.t4 a_30882_n8468.t1 VSS sky130_fd_pr__nfet_01v8 ad=0p pd=0u as=0p ps=0u w=2e+06u l=300000u
X11 a_12035_2653.t3 a_11771_3236.t5 VDD.t510 VDD.t509 sky130_fd_pr__pfet_01v8 ad=0p pd=0u as=0p ps=0u w=1e+06u l=300000u
X12 VDD.t1467 a_25042_n2632.t5 a_25306_n3215.t3 VDD.t1466 sky130_fd_pr__pfet_01v8 ad=0p pd=0u as=0p ps=0u w=1e+06u l=300000u
X13 VDD.t485 a_11463_n5466.t8 a_12816_n4773.t3 VDD.t484 sky130_fd_pr__pfet_01v8 ad=0p pd=0u as=0p ps=0u w=1e+06u l=300000u
X14 VDD.t1414 A[0].t0 a_28645_5296.t3 VDD.t1413 sky130_fd_pr__pfet_01v8 ad=0p pd=0u as=0p ps=0u w=1e+06u l=300000u
X15 a_26302_n2628.t2 a_25306_n3215.t4 VDD.t823 VDD.t822 sky130_fd_pr__pfet_01v8 ad=0p pd=0u as=0p ps=0u w=2e+06u l=300000u
X16 a_25160_n2632.t4 a_23425_n2941.t4 VDD.t1213 VDD.t1212 sky130_fd_pr__pfet_01v8 ad=0p pd=0u as=0p ps=0u w=2e+06u l=300000u
X17 VDD.t1598 a_18689_2585.t4 a_19685_3172.t3 VDD.t1597 sky130_fd_pr__pfet_01v8 ad=0p pd=0u as=0p ps=0u w=2e+06u l=300000u
X18 VDD.t601 a_13367_404.t8 a_16232_1646.t5 VDD.t600 sky130_fd_pr__pfet_01v8 ad=0p pd=0u as=0p ps=0u w=1e+06u l=300000u
X19 a_28640_n308.t3 A[1].t0 VDD.t855 VDD.t854 sky130_fd_pr__pfet_01v8 ad=0p pd=0u as=0p ps=0u w=1e+06u l=300000u
X20 VDD.t901 B[1].t0 a_125_3543.t6 VDD.t900 sky130_fd_pr__pfet_01v8 ad=0p pd=0u as=0p ps=0u w=1e+06u l=300000u
X21 a_19903_336.t9 a_18123_336.t8 VDD.t952 VDD.t951 sky130_fd_pr__pfet_01v8 ad=0p pd=0u as=0p ps=0u w=2e+06u l=300000u
X22 a_16822_1209.t3 a_16232_1646.t7 VDD.t833 VDD.t832 sky130_fd_pr__pfet_01v8 ad=0p pd=0u as=0p ps=0u w=1e+06u l=300000u
X23 a_9573_110.t4 a_7379_5006.t4 VDD.t1282 VDD.t1281 sky130_fd_pr__pfet_01v8 ad=0p pd=0u as=0p ps=0u w=1e+06u l=300000u
X24 a_23072_n3141.t0 a_20016_n5465.t8 a_22835_n2504.t3 VSS sky130_fd_pr__nfet_01v8 ad=0p pd=0u as=0p ps=0u w=2e+06u l=300000u
X25 a_6692_n5464.t4 a_2961_n4180.t4 VDD.t1310 VDD.t1309 sky130_fd_pr__pfet_01v8 ad=0p pd=0u as=0p ps=0u w=2e+06u l=300000u
X26 VDD.t245 a_19562_n2629.t5 a_19826_n3212.t0 VDD.t244 sky130_fd_pr__pfet_01v8 ad=0p pd=0u as=0p ps=0u w=1e+06u l=300000u
X27 a_22789_n4180.t0 a_32248_n2698.t7 VSS.t28 VSS sky130_fd_pr__nfet_01v8 ad=0p pd=0u as=0p ps=0u w=1e+06u l=300000u
X28 a_31176_n7762.t0 a_13361_n5466.t8 VSS.t69 VSS sky130_fd_pr__nfet_01v8 ad=0p pd=0u as=0p ps=0u w=1e+06u l=300000u
X29 a_26520_n5464.t4 a_24740_n5464.t8 VDD.t1491 VDD.t1490 sky130_fd_pr__pfet_01v8 ad=0p pd=0u as=0p ps=0u w=2e+06u l=300000u
X30 a_715_3106.t3 a_125_3543.t7 VDD.t909 VDD.t908 sky130_fd_pr__pfet_01v8 ad=0p pd=0u as=0p ps=0u w=1e+06u l=300000u
X31 a_16822_1209.t0 a_16232_1646.t8 VSS.t109 VSS sky130_fd_pr__nfet_01v8 ad=0p pd=0u as=0p ps=0u w=1e+06u l=300000u
X32 a_30764_107.t2 a_29301_n2665.t4 VDD.t257 VDD.t256 sky130_fd_pr__pfet_01v8 ad=0p pd=0u as=0p ps=0u w=2e+06u l=300000u
X33 VDD.t689 a_29305_n8580.t4 a_32248_n7046.t2 VDD.t688 sky130_fd_pr__pfet_01v8 ad=0p pd=0u as=0p ps=0u w=1e+06u l=300000u
X34 VDD.t467 a_22844_n5758.t7 a_23434_n6195.t3 VDD.t466 sky130_fd_pr__pfet_01v8 ad=0p pd=0u as=0p ps=0u w=1e+06u l=300000u
X35 a_715_3106.t0 a_125_3543.t8 VSS.t149 VSS sky130_fd_pr__nfet_01v8 ad=0p pd=0u as=0p ps=0u w=1e+06u l=300000u
X36 VDD.t825 a_25306_n3215.t5 a_26302_n2628.t1 VDD.t824 sky130_fd_pr__pfet_01v8 ad=0p pd=0u as=0p ps=0u w=2e+06u l=300000u
X37 VDD.t259 a_16172_1620.t4 a_19903_336.t2 VDD.t258 sky130_fd_pr__pfet_01v8 ad=0p pd=0u as=0p ps=0u w=2e+06u l=300000u
X38 VDD.t1209 a_23425_n2941.t5 a_25160_n2632.t3 VDD.t1208 sky130_fd_pr__pfet_01v8 ad=0p pd=0u as=0p ps=0u w=2e+06u l=300000u
X39 a_16222_n5759.t3 a_13177_2657.t4 VDD.t81 VDD.t80 sky130_fd_pr__pfet_01v8 ad=0p pd=0u as=0p ps=0u w=1e+06u l=300000u
X40 a_3605_2839.t3 a_3015_3276.t7 VDD.t1447 VDD.t1446 sky130_fd_pr__pfet_01v8 ad=0p pd=0u as=0p ps=0u w=1e+06u l=300000u
X41 a_6700_316.t2 a_4920_316.t8 VDD.t538 VDD.t537 sky130_fd_pr__pfet_01v8 ad=0p pd=0u as=0p ps=0u w=2e+06u l=300000u
X42 VDD.t149 a_3024_22.t7 a_3614_n415.t3 VDD.t148 sky130_fd_pr__pfet_01v8 ad=0p pd=0u as=0p ps=0u w=1e+06u l=300000u
X43 VSS.t142 a_707_521.t4 a_4375_1009.t0 VSS sky130_fd_pr__nfet_01v8 ad=0p pd=0u as=0p ps=0u w=1e+06u l=300000u
X44 a_10163_n327.t3 a_9573_110.t7 VDD.t1249 VDD.t1248 sky130_fd_pr__pfet_01v8 ad=0p pd=0u as=0p ps=0u w=1e+06u l=300000u
X45 a_6824_n8261.t5 B[2].t0 VDD.t548 VDD.t547 sky130_fd_pr__pfet_01v8 ad=0p pd=0u as=0p ps=0u w=1e+06u l=300000u
X46 a_32248_797.t2 a_29301_n2665.t5 VDD.t174 VDD.t173 sky130_fd_pr__pfet_01v8 ad=0p pd=0u as=0p ps=0u w=1e+06u l=300000u
X47 Y[1].t5 a_31176_81.t4 a_30764_107.t7 VDD.t877 sky130_fd_pr__pfet_01v8 ad=0p pd=0u as=0p ps=0u w=2e+06u l=300000u
X48 a_24976_n6196.t1 a_20617_n7831.t4 a_24740_n5464.t4 VSS sky130_fd_pr__nfet_01v8 ad=0p pd=0u as=0p ps=0u w=2e+06u l=300000u
X49 VDD.t603 a_13367_404.t9 a_16218_3296.t6 VDD.t602 sky130_fd_pr__pfet_01v8 ad=0p pd=0u as=0p ps=0u w=1e+06u l=300000u
X50 VDD.t1106 a_11469_404.t8 a_12822_1097.t0 VDD.t1105 sky130_fd_pr__pfet_01v8 ad=0p pd=0u as=0p ps=0u w=1e+06u l=300000u
X51 VSS.t91 a_20617_n7831.t5 a_23072_n3141.t1 VSS sky130_fd_pr__nfet_01v8 ad=0p pd=0u as=0p ps=0u w=2e+06u l=300000u
X52 VDD.t1312 a_2961_n4180.t5 a_6692_n5464.t3 VDD.t1311 sky130_fd_pr__pfet_01v8 ad=0p pd=0u as=0p ps=0u w=2e+06u l=300000u
X53 a_19826_n3212.t1 a_19562_n2629.t6 VDD.t247 VDD.t246 sky130_fd_pr__pfet_01v8 ad=0p pd=0u as=0p ps=0u w=1e+06u l=300000u
X54 a_26932_n5490.t0 a_22789_n4180.t4 VSS.t105 VSS sky130_fd_pr__nfet_01v8 ad=0p pd=0u as=0p ps=0u w=1e+06u l=300000u
X55 a_26520_n5464.t8 a_26932_n5490.t4 Y[5].t2 VDD.t686 sky130_fd_pr__pfet_01v8 ad=0p pd=0u as=0p ps=0u w=2e+06u l=300000u
X56 VDD.t1493 a_24740_n5464.t9 a_26520_n5464.t3 VDD.t1492 sky130_fd_pr__pfet_01v8 ad=0p pd=0u as=0p ps=0u w=2e+06u l=300000u
X57 a_9512_n4182.t0 a_32246_4888.t7 VSS.t4 VSS sky130_fd_pr__nfet_01v8 ad=0p pd=0u as=0p ps=0u w=1e+06u l=300000u
X58 VSS.t79 a_13367_404.t10 a_16469_1009.t1 VSS sky130_fd_pr__nfet_01v8 ad=0p pd=0u as=0p ps=0u w=2e+06u l=300000u
X59 a_23447_1277.t3 a_22857_1714.t7 VDD.t1062 VDD.t1061 sky130_fd_pr__pfet_01v8 ad=0p pd=0u as=0p ps=0u w=1e+06u l=300000u
X60 a_24203_1097.t3 a_19826_n3212.t5 VDD.t204 VDD.t203 sky130_fd_pr__pfet_01v8 ad=0p pd=0u as=0p ps=0u w=1e+06u l=300000u
X61 a_12907_n2630.t0 a_10162_n4593.t4 VSS.t37 VSS sky130_fd_pr__nfet_01v8 ad=0p pd=0u as=0p ps=0u w=1e+06u l=300000u
X62 a_16172_1620.t3 a_32248_n7046.t7 VDD.t74 VDD.t73 sky130_fd_pr__pfet_01v8 ad=0p pd=0u as=0p ps=0u w=1e+06u l=300000u
X63 a_18000_n5465.t4 a_13968_n7819.t4 VDD.t13 VDD.t12 sky130_fd_pr__pfet_01v8 ad=0p pd=0u as=0p ps=0u w=2e+06u l=300000u
X64 VDD.t550 B[2].t1 a_6824_n8261.t4 VDD.t549 sky130_fd_pr__pfet_01v8 ad=0p pd=0u as=0p ps=0u w=1e+06u l=300000u
X65 a_22844_n5758.t3 a_20016_n5465.t9 VDD.t1241 VDD.t1240 sky130_fd_pr__pfet_01v8 ad=0p pd=0u as=0p ps=0u w=1e+06u l=300000u
X66 VDD.t368 a_704_n5517.t4 a_4794_n5464.t9 VDD.t367 sky130_fd_pr__pfet_01v8 ad=0p pd=0u as=0p ps=0u w=2e+06u l=300000u
X67 VDD.t1058 a_22849_n4154.t7 a_23439_n4591.t3 VDD.t1057 sky130_fd_pr__pfet_01v8 ad=0p pd=0u as=0p ps=0u w=1e+06u l=300000u
X68 a_13928_5005.t3 a_13338_5442.t7 VDD.t685 VDD.t684 sky130_fd_pr__pfet_01v8 ad=0p pd=0u as=0p ps=0u w=1e+06u l=300000u
X69 a_12913_3240.t3 a_10168_1277.t4 a_13031_3240.t1 VDD.t79 sky130_fd_pr__pfet_01v8 ad=0p pd=0u as=0p ps=0u w=2e+06u l=300000u
X70 a_22852_110.t2 a_20582_5026.t4 VDD.t301 VDD.t300 sky130_fd_pr__pfet_01v8 ad=0p pd=0u as=0p ps=0u w=1e+06u l=300000u
X71 Y[6].t6 a_26940_378.t4 a_26528_404.t4 VDD.t610 sky130_fd_pr__pfet_01v8 ad=0p pd=0u as=0p ps=0u w=2e+06u l=300000u
X72 VDD.t249 a_19562_n2629.t7 a_19826_n3212.t2 VDD.t248 sky130_fd_pr__pfet_01v8 ad=0p pd=0u as=0p ps=0u w=1e+06u l=300000u
X73 a_13968_n7819.t0 a_13378_n8256.t7 VDD.t516 VDD.t515 sky130_fd_pr__pfet_01v8 ad=0p pd=0u as=0p ps=0u w=1e+06u l=300000u
X74 a_26520_n5464.t2 a_24740_n5464.t10 VDD.t1495 VDD.t1494 sky130_fd_pr__pfet_01v8 ad=0p pd=0u as=0p ps=0u w=2e+06u l=300000u
X75 a_13177_2657.t0 a_12913_3240.t5 VDD.t348 VDD.t347 sky130_fd_pr__pfet_01v8 ad=0p pd=0u as=0p ps=0u w=1e+06u l=300000u
X76 a_29230_2288.t3 a_28640_2725.t7 VDD.t51 VDD.t50 sky130_fd_pr__pfet_01v8 ad=0p pd=0u as=0p ps=0u w=1e+06u l=300000u
X77 a_20582_5026.t0 a_19992_5463.t7 VDD.t293 VDD.t292 sky130_fd_pr__pfet_01v8 ad=0p pd=0u as=0p ps=0u w=1e+06u l=300000u
X78 VSS.t148 a_12029_n3217.t4 a_12907_n2630.t4 VSS sky130_fd_pr__nfet_01v8 ad=0p pd=0u as=0p ps=0u w=1e+06u l=300000u
X79 a_29301_n2665.t0 a_28711_n2228.t7 VDD.t1422 VDD.t1421 sky130_fd_pr__pfet_01v8 ad=0p pd=0u as=0p ps=0u w=1e+06u l=300000u
X80 a_20582_5026.t1 a_19992_5463.t8 VSS.t34 VSS sky130_fd_pr__nfet_01v8 ad=0p pd=0u as=0p ps=0u w=1e+06u l=300000u
X81 a_11351_404.t2 a_11763_378.t4 a_11469_404.t5 VDD.t1394 sky130_fd_pr__pfet_01v8 ad=0p pd=0u as=0p ps=0u w=2e+06u l=300000u
X82 a_31176_81.t1 a_29230_n745.t4 VDD.t291 VDD.t290 sky130_fd_pr__pfet_01v8 ad=0p pd=0u as=0p ps=0u w=1e+06u l=300000u
X83 a_30762_4198.t2 a_6818_316.t9 VDD.t639 VDD.t638 sky130_fd_pr__pfet_01v8 ad=0p pd=0u as=0p ps=0u w=2e+06u l=300000u
X84 VDD.t637 a_6818_316.t10 a_32246_4888.t4 VDD.t636 sky130_fd_pr__pfet_01v8 ad=0p pd=0u as=0p ps=0u w=1e+06u l=300000u
X85 a_29230_n745.t0 a_28640_n308.t7 VSS.t26 VSS sky130_fd_pr__nfet_01v8 ad=0p pd=0u as=0p ps=0u w=1e+06u l=300000u
X86 a_18412_n5491.t0 a_13177_2657.t5 VSS.t13 VSS sky130_fd_pr__nfet_01v8 ad=0p pd=0u as=0p ps=0u w=1e+06u l=300000u
X87 VDD.t15 a_13968_n7819.t5 a_18000_n5465.t3 VDD.t14 sky130_fd_pr__pfet_01v8 ad=0p pd=0u as=0p ps=0u w=2e+06u l=300000u
X88 VDD.t378 a_9512_n4182.t4 a_9567_n5760.t6 VDD.t377 sky130_fd_pr__pfet_01v8 ad=0p pd=0u as=0p ps=0u w=1e+06u l=300000u
X89 a_30762_4198.t11 a_31174_4172.t4 Y[2].t7 VDD.t1187 sky130_fd_pr__pfet_01v8 ad=0p pd=0u as=0p ps=0u w=2e+06u l=300000u
X90 a_7112_290.t2 a_2969_1600.t5 VDD.t1479 VDD.t1478 sky130_fd_pr__pfet_01v8 ad=0p pd=0u as=0p ps=0u w=1e+06u l=300000u
X91 a_6789_5443.t6 A[3].t0 VDD.t372 VDD.t371 sky130_fd_pr__pfet_01v8 ad=0p pd=0u as=0p ps=0u w=1e+06u l=300000u
X92 VDD.t1323 a_16808_2859.t4 a_18543_3168.t5 VDD.t1322 sky130_fd_pr__pfet_01v8 ad=0p pd=0u as=0p ps=0u w=2e+06u l=300000u
X93 a_23433_2927.t3 a_22843_3364.t7 VDD.t1359 VDD.t1358 sky130_fd_pr__pfet_01v8 ad=0p pd=0u as=0p ps=0u w=1e+06u l=300000u
X94 a_26528_404.t9 a_22797_1688.t4 VDD.t1347 VDD.t1346 sky130_fd_pr__pfet_01v8 ad=0p pd=0u as=0p ps=0u w=2e+06u l=300000u
X95 a_4794_n5464.t8 a_704_n5517.t5 VDD.t370 VDD.t369 sky130_fd_pr__pfet_01v8 ad=0p pd=0u as=0p ps=0u w=2e+06u l=300000u
X96 a_23439_n4591.t2 a_22849_n4154.t8 VDD.t1060 VDD.t1059 sky130_fd_pr__pfet_01v8 ad=0p pd=0u as=0p ps=0u w=1e+06u l=300000u
X97 a_6273_1009.t3 a_4920_316.t9 VDD.t45 VDD.t44 sky130_fd_pr__pfet_01v8 ad=0p pd=0u as=0p ps=0u w=1e+06u l=300000u
X98 a_18359_n396.t1 a_13367_404.t11 a_18123_336.t7 VSS sky130_fd_pr__nfet_01v8 ad=0p pd=0u as=0p ps=0u w=2e+06u l=300000u
X99 VSS.t116 a_13968_n7819.t6 a_16450_n3142.t0 VSS sky130_fd_pr__nfet_01v8 ad=0p pd=0u as=0p ps=0u w=2e+06u l=300000u
X100 a_20016_n6197.t1 a_20310_n5491.t4 VSS.t58 VSS sky130_fd_pr__nfet_01v8 ad=0p pd=0u as=0p ps=0u w=2e+06u l=300000u
X101 a_12035_2653.t0 a_11771_3236.t6 VSS.t119 VSS sky130_fd_pr__nfet_01v8 ad=0p pd=0u as=0p ps=0u w=1e+06u l=300000u
X102 a_19903_336.t5 a_20315_310.t4 a_20021_336.t4 VDD.t453 sky130_fd_pr__pfet_01v8 ad=0p pd=0u as=0p ps=0u w=2e+06u l=300000u
X103 a_31176_n7762.t3 a_13361_n5466.t9 VDD.t552 VDD.t551 sky130_fd_pr__pfet_01v8 ad=0p pd=0u as=0p ps=0u w=1e+06u l=300000u
X104 VDD.t518 a_13378_n8256.t8 a_13968_n7819.t1 VDD.t517 sky130_fd_pr__pfet_01v8 ad=0p pd=0u as=0p ps=0u w=1e+06u l=300000u
X105 a_7054_n416.t0 a_4920_316.t10 a_6818_316.t0 VSS sky130_fd_pr__nfet_01v8 ad=0p pd=0u as=0p ps=0u w=2e+06u l=300000u
X106 VDD.t303 a_20582_5026.t5 a_24630_404.t3 VDD.t302 sky130_fd_pr__pfet_01v8 ad=0p pd=0u as=0p ps=0u w=2e+06u l=300000u
X107 a_11765_n2634.t1 a_10157_n6197.t4 VSS.t36 VSS sky130_fd_pr__nfet_01v8 ad=0p pd=0u as=0p ps=0u w=1e+06u l=300000u
X108 VDD.t402 a_7414_n7824.t5 a_10918_n4773.t2 VDD.t401 sky130_fd_pr__pfet_01v8 ad=0p pd=0u as=0p ps=0u w=1e+06u l=300000u
X109 a_3619_1189.t2 a_3029_1626.t8 VDD.t426 VDD.t425 sky130_fd_pr__pfet_01v8 ad=0p pd=0u as=0p ps=0u w=1e+06u l=300000u
X110 VDD.t1430 a_28711_n2228.t8 a_29301_n2665.t1 VDD.t1429 sky130_fd_pr__pfet_01v8 ad=0p pd=0u as=0p ps=0u w=1e+06u l=300000u
X111 a_22849_n4154.t2 a_22789_n4180.t5 VDD.t800 VDD.t799 sky130_fd_pr__pfet_01v8 ad=0p pd=0u as=0p ps=0u w=1e+06u l=300000u
X112 VDD.t1424 a_28645_5296.t7 Y[0].t3 VDD.t1423 sky130_fd_pr__pfet_01v8 ad=0p pd=0u as=0p ps=0u w=1e+06u l=300000u
X113 VDD.t807 a_715_3106.t4 a_5214_290.t3 VDD.t806 sky130_fd_pr__pfet_01v8 ad=0p pd=0u as=0p ps=0u w=1e+06u l=300000u
X114 a_11705_n328.t1 a_6620_n3211.t4 a_11469_404.t1 VSS sky130_fd_pr__nfet_01v8 ad=0p pd=0u as=0p ps=0u w=2e+06u l=300000u
X115 a_13361_n5466.t2 a_12816_n4773.t4 a_13361_n6198.t0 VSS sky130_fd_pr__nfet_01v8 ad=0p pd=0u as=0p ps=0u w=2e+06u l=300000u
X116 a_16167_n4181.t3 a_19567_3172.t5 VDD.t458 VDD.t457 sky130_fd_pr__pfet_01v8 ad=0p pd=0u as=0p ps=0u w=1e+06u l=300000u
X117 VSS.t39 a_20617_n7831.t6 a_24195_n4771.t0 VSS sky130_fd_pr__nfet_01v8 ad=0p pd=0u as=0p ps=0u w=1e+06u l=300000u
X118 a_18000_n5465.t2 a_13968_n7819.t7 VDD.t917 VDD.t916 sky130_fd_pr__pfet_01v8 ad=0p pd=0u as=0p ps=0u w=2e+06u l=300000u
X119 a_6810_n5464.t5 a_6265_n4771.t4 a_6810_n6196.t0 VSS sky130_fd_pr__nfet_01v8 ad=0p pd=0u as=0p ps=0u w=2e+06u l=300000u
X120 VDD.t1110 a_707_521.t5 a_4375_1009.t3 VDD.t1109 sky130_fd_pr__pfet_01v8 ad=0p pd=0u as=0p ps=0u w=1e+06u l=300000u
X121 VDD.t323 a_12907_n2630.t5 a_9518_1688.t3 VDD.t322 sky130_fd_pr__pfet_01v8 ad=0p pd=0u as=0p ps=0u w=1e+06u l=300000u
X122 a_3015_3276.t3 a_715_3106.t5 VDD.t809 VDD.t808 sky130_fd_pr__pfet_01v8 ad=0p pd=0u as=0p ps=0u w=1e+06u l=300000u
X123 VDD.t1537 a_688_n2757.t4 a_4794_n5464.t5 VDD.t1536 sky130_fd_pr__pfet_01v8 ad=0p pd=0u as=0p ps=0u w=2e+06u l=300000u
X124 a_6818_316.t4 a_6273_1009.t4 a_6700_316.t3 VDD.t240 sky130_fd_pr__pfet_01v8 ad=0p pd=0u as=0p ps=0u w=2e+06u l=300000u
X125 a_19476_1029.t3 a_18123_336.t9 VDD.t954 VDD.t953 sky130_fd_pr__pfet_01v8 ad=0p pd=0u as=0p ps=0u w=1e+06u l=300000u
X126 a_6474_n2628.t2 a_3611_n4591.t4 a_6356_n2628.t3 VDD.t1107 sky130_fd_pr__pfet_01v8 ad=0p pd=0u as=0p ps=0u w=2e+06u l=300000u
X127 a_5332_n2632.t2 a_3606_n6195.t4 a_5214_n2632.t1 VDD.t437 sky130_fd_pr__pfet_01v8 ad=0p pd=0u as=0p ps=0u w=2e+06u l=300000u
X128 a_24622_n5464.t2 a_25034_n5490.t4 a_24740_n5464.t0 VDD.t589 sky130_fd_pr__pfet_01v8 ad=0p pd=0u as=0p ps=0u w=2e+06u l=300000u
X129 a_11771_3236.t1 a_10163_n327.t4 a_11889_3236.t2 VDD.t704 sky130_fd_pr__pfet_01v8 ad=0p pd=0u as=0p ps=0u w=2e+06u l=300000u
X130 VDD.t554 a_13361_n5466.t10 a_31176_n7762.t2 VDD.t553 sky130_fd_pr__pfet_01v8 ad=0p pd=0u as=0p ps=0u w=1e+06u l=300000u
X131 a_13968_n7819.t2 a_13378_n8256.t9 VDD.t520 VDD.t519 sky130_fd_pr__pfet_01v8 ad=0p pd=0u as=0p ps=0u w=1e+06u l=300000u
X132 a_28708_n5298.t2 A[1].t1 VDD.t857 VDD.t856 sky130_fd_pr__pfet_01v8 ad=0p pd=0u as=0p ps=0u w=1e+06u l=300000u
X133 a_26932_n5490.t3 a_22789_n4180.t6 VDD.t802 VDD.t801 sky130_fd_pr__pfet_01v8 ad=0p pd=0u as=0p ps=0u w=1e+06u l=300000u
X134 VDD.t811 a_715_3106.t6 a_3015_3276.t2 VDD.t810 sky130_fd_pr__pfet_01v8 ad=0p pd=0u as=0p ps=0u w=1e+06u l=300000u
X135 VSS.t66 a_10148_n2943.t4 a_11765_n2634.t4 VSS sky130_fd_pr__nfet_01v8 ad=0p pd=0u as=0p ps=0u w=1e+06u l=300000u
X136 a_29301_n2665.t2 a_28711_n2228.t9 VDD.t1432 VDD.t1431 sky130_fd_pr__pfet_01v8 ad=0p pd=0u as=0p ps=0u w=1e+06u l=300000u
X137 a_13597_n6198.t0 a_11463_n5466.t9 a_13361_n5466.t6 VSS sky130_fd_pr__nfet_01v8 ad=0p pd=0u as=0p ps=0u w=2e+06u l=300000u
X138 a_11889_3236.t1 a_10163_n327.t5 a_11771_3236.t2 VDD.t995 sky130_fd_pr__pfet_01v8 ad=0p pd=0u as=0p ps=0u w=2e+06u l=300000u
X139 a_7046_n6196.t1 a_4912_n5464.t8 a_6810_n5464.t0 VSS sky130_fd_pr__nfet_01v8 ad=0p pd=0u as=0p ps=0u w=2e+06u l=300000u
X140 a_13338_5442.t0 A[2].t0 VDD.t214 VDD.t213 sky130_fd_pr__pfet_01v8 ad=0p pd=0u as=0p ps=0u w=1e+06u l=300000u
X141 VDD.t1481 a_2969_1600.t6 a_6700_316.t11 VDD.t1480 sky130_fd_pr__pfet_01v8 ad=0p pd=0u as=0p ps=0u w=2e+06u l=300000u
X142 a_19680_n2629.t5 a_16817_n4592.t4 a_19562_n2629.t3 VDD.t1070 sky130_fd_pr__pfet_01v8 ad=0p pd=0u as=0p ps=0u w=2e+06u l=300000u
X143 VDD.t1314 a_2961_n4180.t6 a_3016_n5758.t6 VDD.t1313 sky130_fd_pr__pfet_01v8 ad=0p pd=0u as=0p ps=0u w=1e+06u l=300000u
X144 a_4794_n5464.t6 a_688_n2757.t5 VDD.t1539 VDD.t1538 sky130_fd_pr__pfet_01v8 ad=0p pd=0u as=0p ps=0u w=2e+06u l=300000u
X145 a_5222_3148.t1 a_3614_n415.t4 VSS.t24 VSS sky130_fd_pr__nfet_01v8 ad=0p pd=0u as=0p ps=0u w=1e+06u l=300000u
X146 a_6356_n2628.t0 a_3611_n4591.t5 a_6474_n2628.t1 VDD.t1108 sky130_fd_pr__pfet_01v8 ad=0p pd=0u as=0p ps=0u w=2e+06u l=300000u
X147 a_19898_n5465.t4 a_18118_n5465.t8 VDD.t1525 VDD.t1524 sky130_fd_pr__pfet_01v8 ad=0p pd=0u as=0p ps=0u w=2e+06u l=300000u
X148 a_5214_n2632.t3 a_3606_n6195.t5 a_5332_n2632.t1 VDD.t438 sky130_fd_pr__pfet_01v8 ad=0p pd=0u as=0p ps=0u w=2e+06u l=300000u
X149 a_24740_n5464.t1 a_25034_n5490.t5 a_24622_n5464.t1 VDD.t590 sky130_fd_pr__pfet_01v8 ad=0p pd=0u as=0p ps=0u w=2e+06u l=300000u
X150 a_31174_4172.t3 a_29230_2288.t4 VDD.t116 VDD.t115 sky130_fd_pr__pfet_01v8 ad=0p pd=0u as=0p ps=0u w=1e+06u l=300000u
X151 a_30764_107.t3 a_31176_81.t5 Y[1].t4 VDD.t61 sky130_fd_pr__pfet_01v8 ad=0p pd=0u as=0p ps=0u w=2e+06u l=300000u
X152 a_31176_n7762.t1 a_13361_n5466.t11 VDD.t717 VDD.t716 sky130_fd_pr__pfet_01v8 ad=0p pd=0u as=0p ps=0u w=1e+06u l=300000u
X153 VDD.t222 A[1].t2 a_28708_n5298.t1 VDD.t221 sky130_fd_pr__pfet_01v8 ad=0p pd=0u as=0p ps=0u w=1e+06u l=300000u
X154 VDD.t804 a_22789_n4180.t7 a_26932_n5490.t2 VDD.t803 sky130_fd_pr__pfet_01v8 ad=0p pd=0u as=0p ps=0u w=1e+06u l=300000u
X155 a_30335_4891.t3 a_6818_316.t11 VDD.t635 VDD.t634 sky130_fd_pr__pfet_01v8 ad=0p pd=0u as=0p ps=0u w=1e+06u l=300000u
X156 VDD.t663 a_18684_n3216.t4 a_19680_n2629.t1 VDD.t662 sky130_fd_pr__pfet_01v8 ad=0p pd=0u as=0p ps=0u w=2e+06u l=300000u
X157 a_30764_n3388.t11 a_29298_n5735.t4 VDD.t691 VDD.t690 sky130_fd_pr__pfet_01v8 ad=0p pd=0u as=0p ps=0u w=2e+06u l=300000u
X158 Y[3].t5 a_30337_n7043.t5 a_30764_n7736.t11 VDD.t129 sky130_fd_pr__pfet_01v8 ad=0p pd=0u as=0p ps=0u w=2e+06u l=300000u
X159 VSS.t45 a_9512_n4182.t5 a_13597_n6198.t1 VSS sky130_fd_pr__nfet_01v8 ad=0p pd=0u as=0p ps=0u w=2e+06u l=300000u
X160 a_4802_316.t2 a_707_521.t6 VDD.t1112 VDD.t1111 sky130_fd_pr__pfet_01v8 ad=0p pd=0u as=0p ps=0u w=2e+06u l=300000u
X161 a_9558_n2506.t3 a_6810_n5464.t8 VDD.t1434 VDD.t1433 sky130_fd_pr__pfet_01v8 ad=0p pd=0u as=0p ps=0u w=1e+06u l=300000u
X162 a_16808_2859.t3 a_16218_3296.t7 VDD.t1080 VDD.t1079 sky130_fd_pr__pfet_01v8 ad=0p pd=0u as=0p ps=0u w=1e+06u l=300000u
X163 a_3024_22.t2 a_715_3106.t7 VDD.t792 VDD.t791 sky130_fd_pr__pfet_01v8 ad=0p pd=0u as=0p ps=0u w=1e+06u l=300000u
X164 a_32485_160.t1 a_29230_n745.t5 a_32248_797.t3 VSS sky130_fd_pr__nfet_01v8 ad=0p pd=0u as=0p ps=0u w=2e+06u l=300000u
X165 VDD.t27 a_11765_n2634.t5 a_12029_n3217.t0 VDD.t26 sky130_fd_pr__pfet_01v8 ad=0p pd=0u as=0p ps=0u w=1e+06u l=300000u
X166 a_23425_n2941.t0 a_22835_n2504.t7 VDD.t1286 VDD.t1285 sky130_fd_pr__pfet_01v8 ad=0p pd=0u as=0p ps=0u w=1e+06u l=300000u
X167 VDD.t1436 a_6810_n5464.t9 a_11345_n5466.t2 VDD.t1435 sky130_fd_pr__pfet_01v8 ad=0p pd=0u as=0p ps=0u w=2e+06u l=300000u
X168 a_13025_n2630.t5 a_10162_n4593.t5 a_12907_n2630.t3 VDD.t309 sky130_fd_pr__pfet_01v8 ad=0p pd=0u as=0p ps=0u w=2e+06u l=300000u
X169 a_6474_n2628.t0 a_3611_n4591.t6 a_6356_n2628.t1 VDD.t108 sky130_fd_pr__pfet_01v8 ad=0p pd=0u as=0p ps=0u w=2e+06u l=300000u
X170 a_24622_n5464.t0 a_25034_n5490.t6 a_24740_n5464.t5 VDD.t786 sky130_fd_pr__pfet_01v8 ad=0p pd=0u as=0p ps=0u w=2e+06u l=300000u
X171 VDD.t1527 a_18118_n5465.t9 a_19898_n5465.t3 VDD.t1526 sky130_fd_pr__pfet_01v8 ad=0p pd=0u as=0p ps=0u w=2e+06u l=300000u
X172 Y[7].t3 a_26192_3240.t5 VDD.t879 VDD.t878 sky130_fd_pr__pfet_01v8 ad=0p pd=0u as=0p ps=0u w=1e+06u l=300000u
X173 a_3029_1626.t6 a_2969_1600.t7 VDD.t1483 VDD.t1482 sky130_fd_pr__pfet_01v8 ad=0p pd=0u as=0p ps=0u w=1e+06u l=300000u
X174 a_28708_n5298.t0 A[1].t3 VDD.t224 VDD.t223 sky130_fd_pr__pfet_01v8 ad=0p pd=0u as=0p ps=0u w=1e+06u l=300000u
X175 a_20582_5026.t2 a_19992_5463.t9 VDD.t835 VDD.t834 sky130_fd_pr__pfet_01v8 ad=0p pd=0u as=0p ps=0u w=1e+06u l=300000u
X176 VDD.t1451 a_12035_2653.t4 a_13031_3240.t5 VDD.t1450 sky130_fd_pr__pfet_01v8 ad=0p pd=0u as=0p ps=0u w=2e+06u l=300000u
X177 a_24748_404.t2 a_24203_1097.t4 a_24630_404.t8 VDD.t680 sky130_fd_pr__pfet_01v8 ad=0p pd=0u as=0p ps=0u w=2e+06u l=300000u
X178 VDD.t380 a_9512_n4182.t6 a_13243_n5466.t11 VDD.t379 sky130_fd_pr__pfet_01v8 ad=0p pd=0u as=0p ps=0u w=2e+06u l=300000u
X179 a_4794_n5464.t7 a_704_n5517.t6 VDD.t352 VDD.t351 sky130_fd_pr__pfet_01v8 ad=0p pd=0u as=0p ps=0u w=2e+06u l=300000u
X180 a_16227_n4155.t6 a_16167_n4181.t4 VDD.t1170 VDD.t1169 sky130_fd_pr__pfet_01v8 ad=0p pd=0u as=0p ps=0u w=1e+06u l=300000u
X181 a_4802_316.t8 a_5214_290.t4 a_4920_316.t7 VDD.t1533 sky130_fd_pr__pfet_01v8 ad=0p pd=0u as=0p ps=0u w=2e+06u l=300000u
X182 a_23094_1077.t0 a_22797_1688.t5 a_22857_1714.t6 VSS sky130_fd_pr__nfet_01v8 ad=0p pd=0u as=0p ps=0u w=2e+06u l=300000u
X183 VDD.t693 a_29298_n5735.t5 a_30764_n3388.t10 VDD.t692 sky130_fd_pr__pfet_01v8 ad=0p pd=0u as=0p ps=0u w=2e+06u l=300000u
X184 a_29230_2288.t2 a_28640_2725.t8 VDD.t905 VDD.t904 sky130_fd_pr__pfet_01v8 ad=0p pd=0u as=0p ps=0u w=1e+06u l=300000u
X185 VDD.t354 a_704_n5517.t7 a_3021_n4154.t6 VDD.t353 sky130_fd_pr__pfet_01v8 ad=0p pd=0u as=0p ps=0u w=1e+06u l=300000u
X186 VDD.t374 A[3].t1 a_13378_n8256.t0 VDD.t373 sky130_fd_pr__pfet_01v8 ad=0p pd=0u as=0p ps=0u w=1e+06u l=300000u
X187 VDD.t1485 a_2969_1600.t8 a_3029_1626.t5 VDD.t1484 sky130_fd_pr__pfet_01v8 ad=0p pd=0u as=0p ps=0u w=1e+06u l=300000u
X188 a_13249_404.t3 a_12822_1097.t6 a_13367_404.t3 VDD.t1609 sky130_fd_pr__pfet_01v8 ad=0p pd=0u as=0p ps=0u w=2e+06u l=300000u
X189 a_30764_n7736.t10 a_30337_n7043.t6 Y[3].t4 VDD.t130 sky130_fd_pr__pfet_01v8 ad=0p pd=0u as=0p ps=0u w=2e+06u l=300000u
X190 a_23086_n4791.t0 a_22789_n4180.t8 a_22849_n4154.t3 VSS sky130_fd_pr__nfet_01v8 ad=0p pd=0u as=0p ps=0u w=2e+06u l=300000u
X191 a_13361_n6198.t1 a_13655_n5492.t4 VSS.t112 VSS sky130_fd_pr__nfet_01v8 ad=0p pd=0u as=0p ps=0u w=2e+06u l=300000u
X192 a_7379_5006.t2 a_6789_5443.t7 VDD.t1034 VDD.t1033 sky130_fd_pr__pfet_01v8 ad=0p pd=0u as=0p ps=0u w=1e+06u l=300000u
X193 VDD.t1134 a_20021_336.t8 a_32248_n2698.t5 VDD.t1133 sky130_fd_pr__pfet_01v8 ad=0p pd=0u as=0p ps=0u w=1e+06u l=300000u
X194 a_31118_n8468.t0 a_29305_n8580.t5 Y[3].t0 VSS sky130_fd_pr__nfet_01v8 ad=0p pd=0u as=0p ps=0u w=2e+06u l=300000u
X195 VDD.t83 a_13177_2657.t6 a_18412_n5491.t3 VDD.t82 sky130_fd_pr__pfet_01v8 ad=0p pd=0u as=0p ps=0u w=1e+06u l=300000u
X196 VDD.t446 a_25050_3236.t5 a_25314_2653.t3 VDD.t445 sky130_fd_pr__pfet_01v8 ad=0p pd=0u as=0p ps=0u w=1e+06u l=300000u
X197 a_12029_n3217.t1 a_11765_n2634.t6 VDD.t29 VDD.t28 sky130_fd_pr__pfet_01v8 ad=0p pd=0u as=0p ps=0u w=1e+06u l=300000u
X198 a_7379_5006.t3 a_6789_5443.t8 VSS.t128 VSS sky130_fd_pr__nfet_01v8 ad=0p pd=0u as=0p ps=0u w=1e+06u l=300000u
X199 a_29298_n5735.t0 a_28708_n5298.t7 VSS.t75 VSS sky130_fd_pr__nfet_01v8 ad=0p pd=0u as=0p ps=0u w=1e+06u l=300000u
X200 a_11351_404.t4 a_6620_n3211.t5 VDD.t669 VDD.t668 sky130_fd_pr__pfet_01v8 ad=0p pd=0u as=0p ps=0u w=2e+06u l=300000u
X201 VSS.t170 a_22797_1688.t6 a_26882_n328.t0 VSS sky130_fd_pr__nfet_01v8 ad=0p pd=0u as=0p ps=0u w=2e+06u l=300000u
X202 VSS.t32 a_29230_n745.t6 a_31118_n625.t1 VSS sky130_fd_pr__nfet_01v8 ad=0p pd=0u as=0p ps=0u w=2e+06u l=300000u
X203 a_10154_2927.t3 a_9564_3364.t7 VDD.t124 VDD.t123 sky130_fd_pr__pfet_01v8 ad=0p pd=0u as=0p ps=0u w=1e+06u l=300000u
X204 a_20617_n7831.t2 a_20027_n8268.t7 VSS.t200 VSS sky130_fd_pr__nfet_01v8 ad=0p pd=0u as=0p ps=0u w=1e+06u l=300000u
X205 VDD.t118 a_29230_2288.t5 a_30762_4198.t5 VDD.t117 sky130_fd_pr__pfet_01v8 ad=0p pd=0u as=0p ps=0u w=2e+06u l=300000u
X206 a_9512_n4182.t3 a_32246_4888.t8 VDD.t619 VDD.t618 sky130_fd_pr__pfet_01v8 ad=0p pd=0u as=0p ps=0u w=1e+06u l=300000u
X207 a_9815_1077.t0 a_9518_1688.t4 a_9578_1714.t0 VSS sky130_fd_pr__nfet_01v8 ad=0p pd=0u as=0p ps=0u w=2e+06u l=300000u
X208 a_18123_n396.t0 a_18417_310.t4 VSS.t143 VSS sky130_fd_pr__nfet_01v8 ad=0p pd=0u as=0p ps=0u w=2e+06u l=300000u
X209 a_22835_n2504.t6 a_20016_n5465.t10 VDD.t1243 VDD.t1242 sky130_fd_pr__pfet_01v8 ad=0p pd=0u as=0p ps=0u w=1e+06u l=300000u
X210 a_5206_n5490.t0 a_688_n2757.t6 VSS.t57 VSS sky130_fd_pr__nfet_01v8 ad=0p pd=0u as=0p ps=0u w=1e+06u l=300000u
X211 VDD.t919 a_13968_n7819.t8 a_16227_n4155.t2 VDD.t918 sky130_fd_pr__pfet_01v8 ad=0p pd=0u as=0p ps=0u w=1e+06u l=300000u
X212 a_125_3543.t3 A[1].t4 VDD.t226 VDD.t225 sky130_fd_pr__pfet_01v8 ad=0p pd=0u as=0p ps=0u w=1e+06u l=300000u
X213 a_23081_n6395.t0 a_20016_n5465.t11 a_22844_n5758.t0 VSS sky130_fd_pr__nfet_01v8 ad=0p pd=0u as=0p ps=0u w=2e+06u l=300000u
X214 VDD.t1284 a_7379_5006.t5 a_9564_3364.t3 VDD.t1283 sky130_fd_pr__pfet_01v8 ad=0p pd=0u as=0p ps=0u w=1e+06u l=300000u
X215 VDD.t186 a_16172_1620.t5 a_16232_1646.t0 VDD.t185 sky130_fd_pr__pfet_01v8 ad=0p pd=0u as=0p ps=0u w=1e+06u l=300000u
X216 VDD.t305 a_20582_5026.t6 a_24630_404.t4 VDD.t304 sky130_fd_pr__pfet_01v8 ad=0p pd=0u as=0p ps=0u w=2e+06u l=300000u
X217 a_3021_n4154.t5 a_704_n5517.t8 VDD.t356 VDD.t355 sky130_fd_pr__pfet_01v8 ad=0p pd=0u as=0p ps=0u w=1e+06u l=300000u
X218 a_6482_3152.t3 a_3619_1189.t4 a_6364_3152.t4 VDD.t1504 sky130_fd_pr__pfet_01v8 ad=0p pd=0u as=0p ps=0u w=2e+06u l=300000u
X219 VDD.t1114 a_707_521.t7 a_4375_1009.t2 VDD.t1113 sky130_fd_pr__pfet_01v8 ad=0p pd=0u as=0p ps=0u w=1e+06u l=300000u
X220 a_28640_n308.t2 A[1].t5 VDD.t228 VDD.t227 sky130_fd_pr__pfet_01v8 ad=0p pd=0u as=0p ps=0u w=1e+06u l=300000u
X221 VSS.t40 a_20617_n7831.t7 a_23086_n4791.t1 VSS sky130_fd_pr__nfet_01v8 ad=0p pd=0u as=0p ps=0u w=2e+06u l=300000u
X222 a_16817_n4592.t0 a_16227_n4155.t7 VSS.t68 VSS sky130_fd_pr__nfet_01v8 ad=0p pd=0u as=0p ps=0u w=1e+06u l=300000u
X223 a_32248_n2698.t6 a_20021_336.t9 VDD.t1203 VDD.t1202 sky130_fd_pr__pfet_01v8 ad=0p pd=0u as=0p ps=0u w=1e+06u l=300000u
X224 VSS.t94 a_13361_n5466.t12 a_31118_n8468.t1 VSS sky130_fd_pr__nfet_01v8 ad=0p pd=0u as=0p ps=0u w=2e+06u l=300000u
X225 a_3606_n6195.t3 a_3016_n5758.t7 VSS.t43 VSS sky130_fd_pr__nfet_01v8 ad=0p pd=0u as=0p ps=0u w=1e+06u l=300000u
X226 VDD.t775 A[1].t6 a_125_3543.t2 VDD.t774 sky130_fd_pr__pfet_01v8 ad=0p pd=0u as=0p ps=0u w=1e+06u l=300000u
X227 VSS.t144 a_11469_404.t9 a_12822_1097.t1 VSS sky130_fd_pr__nfet_01v8 ad=0p pd=0u as=0p ps=0u w=1e+06u l=300000u
X228 VDD.t176 a_29301_n2665.t6 a_30764_107.t1 VDD.t175 sky130_fd_pr__pfet_01v8 ad=0p pd=0u as=0p ps=0u w=2e+06u l=300000u
X229 VSS.t101 a_707_521.t8 a_3252_2639.t0 VSS sky130_fd_pr__nfet_01v8 ad=0p pd=0u as=0p ps=0u w=2e+06u l=300000u
X230 a_18417_310.t3 a_13928_5005.t4 VDD.t342 VDD.t341 sky130_fd_pr__pfet_01v8 ad=0p pd=0u as=0p ps=0u w=1e+06u l=300000u
X231 a_30337_n7043.t0 a_29305_n8580.t6 VDD.t767 VDD.t766 sky130_fd_pr__pfet_01v8 ad=0p pd=0u as=0p ps=0u w=1e+06u l=300000u
X232 VDD.t96 a_24740_n5464.t11 a_26093_n4771.t3 VDD.t95 sky130_fd_pr__pfet_01v8 ad=0p pd=0u as=0p ps=0u w=1e+06u l=300000u
X233 a_18000_n5465.t9 a_18412_n5491.t4 a_18118_n5465.t7 VDD.t963 sky130_fd_pr__pfet_01v8 ad=0p pd=0u as=0p ps=0u w=2e+06u l=300000u
X234 a_6364_3152.t2 a_3619_1189.t5 VSS.t190 VSS sky130_fd_pr__nfet_01v8 ad=0p pd=0u as=0p ps=0u w=1e+06u l=300000u
X235 a_16822_1209.t2 a_16232_1646.t9 VDD.t218 VDD.t217 sky130_fd_pr__pfet_01v8 ad=0p pd=0u as=0p ps=0u w=1e+06u l=300000u
X236 a_3614_n415.t0 a_3024_22.t8 VSS.t23 VSS sky130_fd_pr__nfet_01v8 ad=0p pd=0u as=0p ps=0u w=1e+06u l=300000u
X237 VDD.t168 a_28640_n308.t8 a_29230_n745.t3 VDD.t167 sky130_fd_pr__pfet_01v8 ad=0p pd=0u as=0p ps=0u w=1e+06u l=300000u
X238 a_13575_4805.t0 A[2].t1 a_13338_5442.t1 VSS sky130_fd_pr__nfet_01v8 ad=0p pd=0u as=0p ps=0u w=2e+06u l=300000u
X239 VDD.t344 a_13928_5005.t5 a_18417_310.t2 VDD.t343 sky130_fd_pr__pfet_01v8 ad=0p pd=0u as=0p ps=0u w=1e+06u l=300000u
X240 a_24740_n5464.t6 a_24195_n4771.t4 a_24622_n5464.t8 VDD.t1065 sky130_fd_pr__pfet_01v8 ad=0p pd=0u as=0p ps=0u w=2e+06u l=300000u
X241 VDD.t404 a_7414_n7824.t6 a_9572_n4156.t2 VDD.t403 sky130_fd_pr__pfet_01v8 ad=0p pd=0u as=0p ps=0u w=1e+06u l=300000u
X242 a_16812_n6196.t0 a_16222_n5759.t7 VSS.t22 VSS sky130_fd_pr__nfet_01v8 ad=0p pd=0u as=0p ps=0u w=1e+06u l=300000u
X243 a_351_n5717.t0 B[0].t0 a_114_n5080.t0 VSS sky130_fd_pr__nfet_01v8 ad=0p pd=0u as=0p ps=0u w=2e+06u l=300000u
X244 a_11469_404.t6 a_11763_378.t5 a_11351_404.t1 VDD.t1395 sky130_fd_pr__pfet_01v8 ad=0p pd=0u as=0p ps=0u w=2e+06u l=300000u