* NGSPICE file created from logic_xor_pex.ext - technology: sky130B

.subckt logic_xor A[0] A[1] A[2] A[3] A[4] A[5] A[6] A[7] Y[0] Y[1] Y[2] Y[3]
+ Y[4] Y[5] Y[6] Y[7] VSS VDD B[0] B[1] B[2] B[3] B[4] B[5] B[6] B[7]
X0 a_6543_n476.t6 a_6955_n502.t4 Y[3].t1 VDD.t75 sky130_fd_pr__pfet_01v8 ad=0p pd=0u as=0p ps=0u w=2e+06u l=300000u
X1 a_4475_n478.t5 A[2].t0 VDD.t223 VDD.t222 sky130_fd_pr__pfet_01v8 ad=0p pd=0u as=0p ps=0u w=2e+06u l=300000u
X2 a_692_n1210.t0 A[0].t0 Y[0].t1 VSS sky130_fd_pr__nfet_01v8 ad=0p pd=0u as=0p ps=0u w=2e+06u l=300000u
X3 Y[3].t0 a_6955_n502.t5 a_6543_n476.t5 VDD.t74 sky130_fd_pr__pfet_01v8 ad=0p pd=0u as=0p ps=0u w=2e+06u l=300000u
X4 a_2818_n502.t2 B[1].t0 VDD.t237 VDD.t236 sky130_fd_pr__pfet_01v8 ad=0p pd=0u as=0p ps=0u w=1e+06u l=300000u
X5 a_338_n478.t6 a_n89_215.t4 Y[0].t7 VDD.t213 sky130_fd_pr__pfet_01v8 ad=0p pd=0u as=0p ps=0u w=2e+06u l=300000u
X6 a_12749_n476.t4 A[6].t0 VDD.t125 VDD.t124 sky130_fd_pr__pfet_01v8 ad=0p pd=0u as=0p ps=0u w=2e+06u l=300000u
X7 Y[2].t4 a_4048_215.t4 a_4475_n478.t8 VDD.t98 sky130_fd_pr__pfet_01v8 ad=0p pd=0u as=0p ps=0u w=2e+06u l=300000u
X8 a_13161_n502.t3 B[6].t0 VSS.t12 VSS sky130_fd_pr__nfet_01v8 ad=0p pd=0u as=0p ps=0u w=1e+06u l=300000u
X9 a_14817_n474.t8 B[7].t0 VDD.t69 VDD.t68 sky130_fd_pr__pfet_01v8 ad=0p pd=0u as=0p ps=0u w=2e+06u l=300000u
X10 VDD.t231 A[4].t0 a_8612_n476.t6 VDD.t230 sky130_fd_pr__pfet_01v8 ad=0p pd=0u as=0p ps=0u w=2e+06u l=300000u
X11 VSS.t27 B[0].t0 a_692_n1210.t1 VSS sky130_fd_pr__nfet_01v8 ad=0p pd=0u as=0p ps=0u w=2e+06u l=300000u
X12 a_2406_n476.t7 a_2818_n502.t4 Y[1].t4 VDD.t154 sky130_fd_pr__pfet_01v8 ad=0p pd=0u as=0p ps=0u w=2e+06u l=300000u
X13 a_n89_215.t2 A[0].t1 VDD.t117 VDD.t116 sky130_fd_pr__pfet_01v8 ad=0p pd=0u as=0p ps=0u w=1e+06u l=300000u
X14 a_4475_n478.t4 A[2].t1 VDD.t15 VDD.t14 sky130_fd_pr__pfet_01v8 ad=0p pd=0u as=0p ps=0u w=2e+06u l=300000u
X15 Y[7].t7 a_14390_219.t4 a_14817_n474.t10 VDD.t184 sky130_fd_pr__pfet_01v8 ad=0p pd=0u as=0p ps=0u w=2e+06u l=300000u
X16 VDD.t191 A[1].t0 a_2406_n476.t11 VDD.t190 sky130_fd_pr__pfet_01v8 ad=0p pd=0u as=0p ps=0u w=2e+06u l=300000u
X17 a_6543_n476.t2 A[3].t0 VDD.t47 VDD.t46 sky130_fd_pr__pfet_01v8 ad=0p pd=0u as=0p ps=0u w=2e+06u l=300000u
X18 Y[4].t5 a_8185_217.t4 a_8612_n476.t2 VDD.t64 sky130_fd_pr__pfet_01v8 ad=0p pd=0u as=0p ps=0u w=2e+06u l=300000u
X19 a_8612_n476.t1 a_9024_n502.t4 Y[4].t0 VDD.t36 sky130_fd_pr__pfet_01v8 ad=0p pd=0u as=0p ps=0u w=2e+06u l=300000u
X20 VDD.t195 B[0].t1 a_338_n478.t10 VDD.t194 sky130_fd_pr__pfet_01v8 ad=0p pd=0u as=0p ps=0u w=2e+06u l=300000u
X21 Y[5].t6 a_10253_219.t4 a_10680_n474.t5 VDD.t165 sky130_fd_pr__pfet_01v8 ad=0p pd=0u as=0p ps=0u w=2e+06u l=300000u
X22 Y[1].t0 a_1979_217.t4 a_2524_n1208.t0 VSS sky130_fd_pr__nfet_01v8 ad=0p pd=0u as=0p ps=0u w=2e+06u l=300000u
X23 a_14817_n474.t5 A[7].t0 VDD.t108 VDD.t107 sky130_fd_pr__pfet_01v8 ad=0p pd=0u as=0p ps=0u w=2e+06u l=300000u
X24 VDD.t49 B[5].t0 a_11092_n500.t2 VDD.t48 sky130_fd_pr__pfet_01v8 ad=0p pd=0u as=0p ps=0u w=1e+06u l=300000u
X25 a_13161_n502.t2 B[6].t1 VDD.t123 VDD.t122 sky130_fd_pr__pfet_01v8 ad=0p pd=0u as=0p ps=0u w=1e+06u l=300000u
X26 a_6955_n502.t3 B[3].t0 VDD.t167 VDD.t166 sky130_fd_pr__pfet_01v8 ad=0p pd=0u as=0p ps=0u w=1e+06u l=300000u
X27 a_4475_n478.t10 a_4887_n504.t4 Y[2].t7 VDD.t171 sky130_fd_pr__pfet_01v8 ad=0p pd=0u as=0p ps=0u w=2e+06u l=300000u
X28 VSS.t11 A[2].t2 a_4048_215.t3 VSS sky130_fd_pr__nfet_01v8 ad=0p pd=0u as=0p ps=0u w=1e+06u l=300000u
X29 a_4887_n504.t0 B[2].t0 VDD.t5 VDD.t4 sky130_fd_pr__pfet_01v8 ad=0p pd=0u as=0p ps=0u w=1e+06u l=300000u
X30 VSS.t10 A[5].t0 a_10253_219.t2 VSS sky130_fd_pr__nfet_01v8 ad=0p pd=0u as=0p ps=0u w=1e+06u l=300000u
X31 VDD.t63 A[1].t1 a_1979_217.t2 VDD.t62 sky130_fd_pr__pfet_01v8 ad=0p pd=0u as=0p ps=0u w=1e+06u l=300000u
X32 a_15229_n500.t2 B[7].t1 VDD.t66 VDD.t65 sky130_fd_pr__pfet_01v8 ad=0p pd=0u as=0p ps=0u w=1e+06u l=300000u
X33 a_13103_n1208.t0 A[6].t1 Y[6].t2 VSS sky130_fd_pr__nfet_01v8 ad=0p pd=0u as=0p ps=0u w=2e+06u l=300000u
X34 a_12749_n476.t11 a_12322_217.t4 Y[6].t7 VDD.t204 sky130_fd_pr__pfet_01v8 ad=0p pd=0u as=0p ps=0u w=2e+06u l=300000u
X35 a_338_n478.t9 B[0].t2 VDD.t193 VDD.t192 sky130_fd_pr__pfet_01v8 ad=0p pd=0u as=0p ps=0u w=2e+06u l=300000u
X36 VDD.t175 A[4].t1 a_8185_217.t2 VDD.t174 sky130_fd_pr__pfet_01v8 ad=0p pd=0u as=0p ps=0u w=1e+06u l=300000u
X37 Y[6].t6 a_12322_217.t5 a_12749_n476.t6 VDD.t101 sky130_fd_pr__pfet_01v8 ad=0p pd=0u as=0p ps=0u w=2e+06u l=300000u
X38 VDD.t59 A[6].t2 a_12749_n476.t3 VDD.t58 sky130_fd_pr__pfet_01v8 ad=0p pd=0u as=0p ps=0u w=2e+06u l=300000u
X39 a_2406_n476.t10 A[1].t2 VDD.t189 VDD.t188 sky130_fd_pr__pfet_01v8 ad=0p pd=0u as=0p ps=0u w=2e+06u l=300000u
X40 VDD.t23 A[2].t3 a_4475_n478.t3 VDD.t22 sky130_fd_pr__pfet_01v8 ad=0p pd=0u as=0p ps=0u w=2e+06u l=300000u
X41 VSS.t14 B[6].t2 a_13103_n1208.t1 VSS sky130_fd_pr__nfet_01v8 ad=0p pd=0u as=0p ps=0u w=2e+06u l=300000u
X42 a_6955_n502.t0 B[3].t1 VDD.t91 VDD.t90 sky130_fd_pr__pfet_01v8 ad=0p pd=0u as=0p ps=0u w=1e+06u l=300000u
X43 a_8612_n476.t5 A[4].t2 VDD.t225 VDD.t224 sky130_fd_pr__pfet_01v8 ad=0p pd=0u as=0p ps=0u w=2e+06u l=300000u
X44 a_15229_n500.t3 B[7].t2 VSS.t16 VSS sky130_fd_pr__nfet_01v8 ad=0p pd=0u as=0p ps=0u w=1e+06u l=300000u
X45 a_4593_n1210.t1 a_4887_n504.t5 VSS.t24 VSS sky130_fd_pr__nfet_01v8 ad=0p pd=0u as=0p ps=0u w=2e+06u l=300000u
X46 a_2406_n476.t8 a_1979_217.t5 Y[1].t6 VDD.t106 sky130_fd_pr__pfet_01v8 ad=0p pd=0u as=0p ps=0u w=2e+06u l=300000u
X47 a_10680_n474.t10 A[5].t1 VDD.t145 VDD.t144 sky130_fd_pr__pfet_01v8 ad=0p pd=0u as=0p ps=0u w=2e+06u l=300000u
X48 VDD.t8 A[3].t1 a_6543_n476.t1 VDD.t7 sky130_fd_pr__pfet_01v8 ad=0p pd=0u as=0p ps=0u w=2e+06u l=300000u
X49 a_14817_n474.t1 a_15229_n500.t4 Y[7].t1 VDD.t35 sky130_fd_pr__pfet_01v8 ad=0p pd=0u as=0p ps=0u w=2e+06u l=300000u
X50 VDD.t53 A[7].t1 a_14817_n474.t3 VDD.t52 sky130_fd_pr__pfet_01v8 ad=0p pd=0u as=0p ps=0u w=2e+06u l=300000u
X51 Y[4].t4 a_8185_217.t5 a_8612_n476.t3 VDD.t80 sky130_fd_pr__pfet_01v8 ad=0p pd=0u as=0p ps=0u w=2e+06u l=300000u
X52 a_338_n478.t3 A[0].t2 VDD.t147 VDD.t146 sky130_fd_pr__pfet_01v8 ad=0p pd=0u as=0p ps=0u w=2e+06u l=300000u
X53 VSS.t29 B[4].t0 a_8966_n1208.t0 VSS sky130_fd_pr__nfet_01v8 ad=0p pd=0u as=0p ps=0u w=2e+06u l=300000u
X54 Y[6].t0 a_12322_217.t6 a_12867_n1208.t0 VSS sky130_fd_pr__nfet_01v8 ad=0p pd=0u as=0p ps=0u w=2e+06u l=300000u
X55 Y[6].t5 a_13161_n502.t4 a_12749_n476.t7 VDD.t115 sky130_fd_pr__pfet_01v8 ad=0p pd=0u as=0p ps=0u w=2e+06u l=300000u
X56 Y[3].t3 a_6116_217.t4 a_6543_n476.t9 VDD.t209 sky130_fd_pr__pfet_01v8 ad=0p pd=0u as=0p ps=0u w=2e+06u l=300000u
X57 VDD.t181 B[2].t1 a_4475_n478.t11 VDD.t180 sky130_fd_pr__pfet_01v8 ad=0p pd=0u as=0p ps=0u w=2e+06u l=300000u
X58 a_8730_n1208.t0 a_9024_n502.t5 VSS.t0 VSS sky130_fd_pr__nfet_01v8 ad=0p pd=0u as=0p ps=0u w=2e+06u l=300000u
X59 a_10680_n474.t4 a_11092_n500.t4 Y[5].t2 VDD.t38 sky130_fd_pr__pfet_01v8 ad=0p pd=0u as=0p ps=0u w=2e+06u l=300000u
X60 VDD.t86 B[6].t3 a_13161_n502.t1 VDD.t85 sky130_fd_pr__pfet_01v8 ad=0p pd=0u as=0p ps=0u w=1e+06u l=300000u
X61 a_11092_n500.t1 B[5].t1 VDD.t139 VDD.t138 sky130_fd_pr__pfet_01v8 ad=0p pd=0u as=0p ps=0u w=1e+06u l=300000u
X62 VDD.t133 A[2].t4 a_4048_215.t2 VDD.t132 sky130_fd_pr__pfet_01v8 ad=0p pd=0u as=0p ps=0u w=1e+06u l=300000u
X63 VDD.t141 B[3].t2 a_6955_n502.t2 VDD.t140 sky130_fd_pr__pfet_01v8 ad=0p pd=0u as=0p ps=0u w=1e+06u l=300000u
X64 a_8185_217.t1 A[4].t3 VDD.t229 VDD.t228 sky130_fd_pr__pfet_01v8 ad=0p pd=0u as=0p ps=0u w=1e+06u l=300000u
X65 VDD.t34 A[5].t2 a_10680_n474.t3 VDD.t33 sky130_fd_pr__pfet_01v8 ad=0p pd=0u as=0p ps=0u w=2e+06u l=300000u
X66 a_456_n1210.t1 a_750_n504.t4 VSS.t20 VSS sky130_fd_pr__nfet_01v8 ad=0p pd=0u as=0p ps=0u w=2e+06u l=300000u
X67 a_8612_n476.t11 B[4].t1 VDD.t208 VDD.t207 sky130_fd_pr__pfet_01v8 ad=0p pd=0u as=0p ps=0u w=2e+06u l=300000u
X68 VDD.t135 B[7].t3 a_15229_n500.t1 VDD.t134 sky130_fd_pr__pfet_01v8 ad=0p pd=0u as=0p ps=0u w=1e+06u l=300000u
X69 a_1979_217.t1 A[1].t3 VDD.t227 VDD.t226 sky130_fd_pr__pfet_01v8 ad=0p pd=0u as=0p ps=0u w=1e+06u l=300000u
X70 Y[3].t7 a_6116_217.t5 a_6543_n476.t11 VDD.t239 sky130_fd_pr__pfet_01v8 ad=0p pd=0u as=0p ps=0u w=2e+06u l=300000u
X71 VDD.t61 B[0].t3 a_338_n478.t0 VDD.t60 sky130_fd_pr__pfet_01v8 ad=0p pd=0u as=0p ps=0u w=2e+06u l=300000u
X72 a_8966_n1208.t1 A[4].t4 Y[4].t1 VSS sky130_fd_pr__nfet_01v8 ad=0p pd=0u as=0p ps=0u w=2e+06u l=300000u
X73 a_12749_n476.t2 A[6].t3 VDD.t235 VDD.t234 sky130_fd_pr__pfet_01v8 ad=0p pd=0u as=0p ps=0u w=2e+06u l=300000u
X74 a_750_n504.t3 B[0].t4 VSS.t26 VSS sky130_fd_pr__nfet_01v8 ad=0p pd=0u as=0p ps=0u w=1e+06u l=300000u
X75 a_338_n478.t8 a_750_n504.t5 Y[0].t5 VDD.t155 sky130_fd_pr__pfet_01v8 ad=0p pd=0u as=0p ps=0u w=2e+06u l=300000u
X76 VDD.t13 A[0].t3 a_338_n478.t2 VDD.t12 sky130_fd_pr__pfet_01v8 ad=0p pd=0u as=0p ps=0u w=2e+06u l=300000u
X77 a_6661_n1208.t0 a_6955_n502.t6 VSS.t7 VSS sky130_fd_pr__nfet_01v8 ad=0p pd=0u as=0p ps=0u w=2e+06u l=300000u
X78 VDD.t219 B[1].t1 a_2406_n476.t4 VDD.t218 sky130_fd_pr__pfet_01v8 ad=0p pd=0u as=0p ps=0u w=2e+06u l=300000u
X79 a_6543_n476.t0 A[3].t2 VDD.t3 VDD.t2 sky130_fd_pr__pfet_01v8 ad=0p pd=0u as=0p ps=0u w=2e+06u l=300000u
X80 a_13161_n502.t0 B[6].t4 VDD.t121 VDD.t120 sky130_fd_pr__pfet_01v8 ad=0p pd=0u as=0p ps=0u w=1e+06u l=300000u
X81 VDD.t206 B[4].t2 a_8612_n476.t10 VDD.t205 sky130_fd_pr__pfet_01v8 ad=0p pd=0u as=0p ps=0u w=2e+06u l=300000u
X82 a_8612_n476.t8 a_9024_n502.t6 Y[4].t6 VDD.t170 sky130_fd_pr__pfet_01v8 ad=0p pd=0u as=0p ps=0u w=2e+06u l=300000u
X83 a_4475_n478.t9 B[2].t2 VDD.t103 VDD.t102 sky130_fd_pr__pfet_01v8 ad=0p pd=0u as=0p ps=0u w=2e+06u l=300000u
X84 VDD.t173 B[5].t2 a_10680_n474.t11 VDD.t172 sky130_fd_pr__pfet_01v8 ad=0p pd=0u as=0p ps=0u w=2e+06u l=300000u
X85 Y[3].t6 a_6116_217.t6 a_6661_n1208.t1 VSS sky130_fd_pr__nfet_01v8 ad=0p pd=0u as=0p ps=0u w=2e+06u l=300000u
X86 Y[5].t5 a_10253_219.t5 a_10680_n474.t6 VDD.t89 sky130_fd_pr__pfet_01v8 ad=0p pd=0u as=0p ps=0u w=2e+06u l=300000u
X87 Y[7].t4 a_14390_219.t5 a_14935_n1206.t1 VSS sky130_fd_pr__nfet_01v8 ad=0p pd=0u as=0p ps=0u w=2e+06u l=300000u
X88 a_338_n478.t7 a_750_n504.t6 Y[0].t2 VDD.t105 sky130_fd_pr__pfet_01v8 ad=0p pd=0u as=0p ps=0u w=2e+06u l=300000u
X89 VSS.t6 A[4].t5 a_8185_217.t3 VSS sky130_fd_pr__nfet_01v8 ad=0p pd=0u as=0p ps=0u w=1e+06u l=300000u
X90 a_6897_n1208.t0 A[3].t3 Y[3].t4 VSS sky130_fd_pr__nfet_01v8 ad=0p pd=0u as=0p ps=0u w=2e+06u l=300000u
X91 a_10680_n474.t1 a_11092_n500.t5 Y[5].t1 VDD.t17 sky130_fd_pr__pfet_01v8 ad=0p pd=0u as=0p ps=0u w=2e+06u l=300000u
X92 VDD.t32 B[4].t3 a_8612_n476.t0 VDD.t31 sky130_fd_pr__pfet_01v8 ad=0p pd=0u as=0p ps=0u w=2e+06u l=300000u
X93 VDD.t40 A[5].t3 a_10253_219.t0 VDD.t39 sky130_fd_pr__pfet_01v8 ad=0p pd=0u as=0p ps=0u w=1e+06u l=300000u
X94 a_2760_n1208.t0 A[1].t4 Y[1].t2 VSS sky130_fd_pr__nfet_01v8 ad=0p pd=0u as=0p ps=0u w=2e+06u l=300000u
X95 a_4048_215.t1 A[2].t5 VDD.t84 VDD.t83 sky130_fd_pr__pfet_01v8 ad=0p pd=0u as=0p ps=0u w=1e+06u l=300000u
X96 Y[2].t1 a_4887_n504.t6 a_4475_n478.t1 VDD.t26 sky130_fd_pr__pfet_01v8 ad=0p pd=0u as=0p ps=0u w=2e+06u l=300000u
X97 a_12867_n1208.t1 a_13161_n502.t5 VSS.t13 VSS sky130_fd_pr__nfet_01v8 ad=0p pd=0u as=0p ps=0u w=2e+06u l=300000u
X98 a_11092_n500.t3 B[5].t3 VSS.t9 VSS sky130_fd_pr__nfet_01v8 ad=0p pd=0u as=0p ps=0u w=1e+06u l=300000u
X99 VSS.t23 B[3].t3 a_6897_n1208.t1 VSS sky130_fd_pr__nfet_01v8 ad=0p pd=0u as=0p ps=0u w=2e+06u l=300000u
X100 VDD.t233 A[4].t6 a_8185_217.t0 VDD.t232 sky130_fd_pr__pfet_01v8 ad=0p pd=0u as=0p ps=0u w=1e+06u l=300000u
X101 Y[7].t6 a_14390_219.t6 a_14817_n474.t11 VDD.t210 sky130_fd_pr__pfet_01v8 ad=0p pd=0u as=0p ps=0u w=2e+06u l=300000u
X102 VSS.t8 A[0].t4 a_n89_215.t3 VSS sky130_fd_pr__nfet_01v8 ad=0p pd=0u as=0p ps=0u w=1e+06u l=300000u
X103 a_15229_n500.t0 B[7].t4 VDD.t112 VDD.t111 sky130_fd_pr__pfet_01v8 ad=0p pd=0u as=0p ps=0u w=1e+06u l=300000u
X104 a_12322_217.t2 A[6].t4 VDD.t162 VDD.t161 sky130_fd_pr__pfet_01v8 ad=0p pd=0u as=0p ps=0u w=1e+06u l=300000u
X105 VDD.t45 A[1].t5 a_1979_217.t0 VDD.t44 sky130_fd_pr__pfet_01v8 ad=0p pd=0u as=0p ps=0u w=1e+06u l=300000u
X106 a_6116_217.t2 A[3].t4 VDD.t160 VDD.t159 sky130_fd_pr__pfet_01v8 ad=0p pd=0u as=0p ps=0u w=1e+06u l=300000u
X107 Y[6].t1 a_12322_217.t7 a_12749_n476.t1 VDD.t37 sky130_fd_pr__pfet_01v8 ad=0p pd=0u as=0p ps=0u w=2e+06u l=300000u
X108 a_338_n478.t1 A[0].t5 VDD.t19 VDD.t18 sky130_fd_pr__pfet_01v8 ad=0p pd=0u as=0p ps=0u w=2e+06u l=300000u
X109 Y[1].t7 a_1979_217.t6 a_2406_n476.t9 VDD.t185 sky130_fd_pr__pfet_01v8 ad=0p pd=0u as=0p ps=0u w=2e+06u l=300000u
X110 VSS.t25 A[3].t5 a_6116_217.t3 VSS sky130_fd_pr__nfet_01v8 ad=0p pd=0u as=0p ps=0u w=1e+06u l=300000u
X111 VDD.t119 B[6].t5 a_12749_n476.t8 VDD.t118 sky130_fd_pr__pfet_01v8 ad=0p pd=0u as=0p ps=0u w=2e+06u l=300000u
X112 a_2406_n476.t3 B[1].t2 VDD.t158 VDD.t157 sky130_fd_pr__pfet_01v8 ad=0p pd=0u as=0p ps=0u w=2e+06u l=300000u
X113 VSS.t5 A[1].t6 a_1979_217.t3 VSS sky130_fd_pr__nfet_01v8 ad=0p pd=0u as=0p ps=0u w=1e+06u l=300000u
X114 Y[7].t2 a_15229_n500.t5 a_14817_n474.t2 VDD.t41 sky130_fd_pr__pfet_01v8 ad=0p pd=0u as=0p ps=0u w=2e+06u l=300000u
X115 VDD.t93 A[6].t5 a_12322_217.t1 VDD.t92 sky130_fd_pr__pfet_01v8 ad=0p pd=0u as=0p ps=0u w=1e+06u l=300000u
X116 VDD.t95 A[3].t6 a_6116_217.t1 VDD.t94 sky130_fd_pr__pfet_01v8 ad=0p pd=0u as=0p ps=0u w=1e+06u l=300000u
X117 Y[0].t0 a_n89_215.t5 a_338_n478.t5 VDD.t9 sky130_fd_pr__pfet_01v8 ad=0p pd=0u as=0p ps=0u w=2e+06u l=300000u
X118 a_10680_n474.t8 B[5].t4 VDD.t137 VDD.t136 sky130_fd_pr__pfet_01v8 ad=0p pd=0u as=0p ps=0u w=2e+06u l=300000u
X119 VDD.t179 B[3].t4 a_6543_n476.t8 VDD.t178 sky130_fd_pr__pfet_01v8 ad=0p pd=0u as=0p ps=0u w=2e+06u l=300000u
X120 VDD.t217 A[0].t6 a_n89_215.t1 VDD.t216 sky130_fd_pr__pfet_01v8 ad=0p pd=0u as=0p ps=0u w=1e+06u l=300000u
X121 VSS.t1 B[5].t5 a_11034_n1206.t1 VSS sky130_fd_pr__nfet_01v8 ad=0p pd=0u as=0p ps=0u w=2e+06u l=300000u
X122 VDD.t79 A[6].t6 a_12322_217.t0 VDD.t78 sky130_fd_pr__pfet_01v8 ad=0p pd=0u as=0p ps=0u w=1e+06u l=300000u
X123 VDD.t114 A[2].t6 a_4048_215.t0 VDD.t113 sky130_fd_pr__pfet_01v8 ad=0p pd=0u as=0p ps=0u w=1e+06u l=300000u
X124 a_10253_219.t3 A[5].t4 VDD.t164 VDD.t163 sky130_fd_pr__pfet_01v8 ad=0p pd=0u as=0p ps=0u w=1e+06u l=300000u
X125 a_4475_n478.t7 a_4048_215.t5 Y[2].t3 VDD.t97 sky130_fd_pr__pfet_01v8 ad=0p pd=0u as=0p ps=0u w=2e+06u l=300000u
X126 VDD.t21 A[7].t2 a_14390_219.t0 VDD.t20 sky130_fd_pr__pfet_01v8 ad=0p pd=0u as=0p ps=0u w=1e+06u l=300000u
X127 Y[1].t1 a_1979_217.t7 a_2406_n476.t0 VDD.t70 sky130_fd_pr__pfet_01v8 ad=0p pd=0u as=0p ps=0u w=2e+06u l=300000u
X128 a_750_n504.t2 B[0].t5 VDD.t77 VDD.t76 sky130_fd_pr__pfet_01v8 ad=0p pd=0u as=0p ps=0u w=1e+06u l=300000u
X129 a_14817_n474.t9 A[7].t3 VDD.t153 VDD.t152 sky130_fd_pr__pfet_01v8 ad=0p pd=0u as=0p ps=0u w=2e+06u l=300000u
X130 a_8612_n476.t7 a_8185_217.t6 Y[4].t3 VDD.t104 sky130_fd_pr__pfet_01v8 ad=0p pd=0u as=0p ps=0u w=2e+06u l=300000u
X131 Y[2].t5 a_4048_215.t6 a_4593_n1210.t0 VSS sky130_fd_pr__nfet_01v8 ad=0p pd=0u as=0p ps=0u w=2e+06u l=300000u
X132 a_6543_n476.t10 a_6116_217.t7 Y[3].t5 VDD.t238 sky130_fd_pr__pfet_01v8 ad=0p pd=0u as=0p ps=0u w=2e+06u l=300000u
X133 VDD.t151 A[3].t7 a_6116_217.t0 VDD.t150 sky130_fd_pr__pfet_01v8 ad=0p pd=0u as=0p ps=0u w=1e+06u l=300000u
X134 a_750_n504.t1 B[0].t6 VDD.t88 VDD.t87 sky130_fd_pr__pfet_01v8 ad=0p pd=0u as=0p ps=0u w=1e+06u l=300000u
X135 a_15171_n1206.t0 A[7].t4 Y[7].t3 VSS sky130_fd_pr__nfet_01v8 ad=0p pd=0u as=0p ps=0u w=2e+06u l=300000u
X136 a_2818_n502.t1 B[1].t3 VDD.t1 VDD.t0 sky130_fd_pr__pfet_01v8 ad=0p pd=0u as=0p ps=0u w=1e+06u l=300000u
X137 Y[5].t3 a_10253_219.t6 a_10798_n1206.t0 VSS sky130_fd_pr__nfet_01v8 ad=0p pd=0u as=0p ps=0u w=2e+06u l=300000u
X138 a_4887_n504.t1 B[2].t3 VSS.t3 VSS sky130_fd_pr__nfet_01v8 ad=0p pd=0u as=0p ps=0u w=1e+06u l=300000u
X139 a_6543_n476.t4 a_6955_n502.t7 Y[3].t2 VDD.t73 sky130_fd_pr__pfet_01v8 ad=0p pd=0u as=0p ps=0u w=2e+06u l=300000u
X140 Y[0].t4 a_n89_215.t6 a_338_n478.t4 VDD.t126 sky130_fd_pr__pfet_01v8 ad=0p pd=0u as=0p ps=0u w=2e+06u l=300000u
X141 a_4475_n478.t0 a_4887_n504.t7 Y[2].t0 VDD.t11 sky130_fd_pr__pfet_01v8 ad=0p pd=0u as=0p ps=0u w=2e+06u l=300000u
X142 Y[1].t5 a_2818_n502.t5 a_2406_n476.t6 VDD.t220 sky130_fd_pr__pfet_01v8 ad=0p pd=0u as=0p ps=0u w=2e+06u l=300000u
X143 a_11034_n1206.t0 A[5].t5 Y[5].t7 VSS sky130_fd_pr__nfet_01v8 ad=0p pd=0u as=0p ps=0u w=2e+06u l=300000u
X144 VDD.t215 B[1].t4 a_2406_n476.t2 VDD.t214 sky130_fd_pr__pfet_01v8 ad=0p pd=0u as=0p ps=0u w=2e+06u l=300000u
X145 a_2406_n476.t5 a_2818_n502.t6 Y[1].t3 VDD.t221 sky130_fd_pr__pfet_01v8 ad=0p pd=0u as=0p ps=0u w=2e+06u l=300000u
X146 VSS.t19 A[6].t7 a_12322_217.t3 VSS sky130_fd_pr__nfet_01v8 ad=0p pd=0u as=0p ps=0u w=1e+06u l=300000u
X147 a_14817_n474.t4 a_14390_219.t7 Y[7].t5 VDD.t67 sky130_fd_pr__pfet_01v8 ad=0p pd=0u as=0p ps=0u w=2e+06u l=300000u
X148 a_12749_n476.t5 B[6].t6 VDD.t100 VDD.t99 sky130_fd_pr__pfet_01v8 ad=0p pd=0u as=0p ps=0u w=2e+06u l=300000u
X149 VSS.t31 B[1].t5 a_2760_n1208.t1 VSS sky130_fd_pr__nfet_01v8 ad=0p pd=0u as=0p ps=0u w=2e+06u l=300000u
X150 a_6543_n476.t3 B[3].t5 VDD.t51 VDD.t50 sky130_fd_pr__pfet_01v8 ad=0p pd=0u as=0p ps=0u w=2e+06u l=300000u
X151 Y[4].t7 a_9024_n502.t7 a_8612_n476.t9 VDD.t199 sky130_fd_pr__pfet_01v8 ad=0p pd=0u as=0p ps=0u w=2e+06u l=300000u
X152 VDD.t57 A[5].t6 a_10253_219.t1 VDD.t56 sky130_fd_pr__pfet_01v8 ad=0p pd=0u as=0p ps=0u w=1e+06u l=300000u
X153 a_9024_n502.t1 B[4].t4 VSS.t28 VSS sky130_fd_pr__nfet_01v8 ad=0p pd=0u as=0p ps=0u w=1e+06u l=300000u
X154 a_2524_n1208.t1 a_2818_n502.t7 VSS.t30 VSS sky130_fd_pr__nfet_01v8 ad=0p pd=0u as=0p ps=0u w=2e+06u l=300000u
X155 VDD.t25 B[5].t6 a_10680_n474.t2 VDD.t24 sky130_fd_pr__pfet_01v8 ad=0p pd=0u as=0p ps=0u w=2e+06u l=300000u
X156 a_10680_n474.t7 a_10253_219.t7 Y[5].t4 VDD.t129 sky130_fd_pr__pfet_01v8 ad=0p pd=0u as=0p ps=0u w=2e+06u l=300000u
X157 Y[0].t6 a_750_n504.t7 a_338_n478.t11 VDD.t196 sky130_fd_pr__pfet_01v8 ad=0p pd=0u as=0p ps=0u w=2e+06u l=300000u
X158 VDD.t149 A[0].t7 a_n89_215.t0 VDD.t148 sky130_fd_pr__pfet_01v8 ad=0p pd=0u as=0p ps=0u w=1e+06u l=300000u
X159 a_14390_219.t2 A[7].t5 VDD.t131 VDD.t130 sky130_fd_pr__pfet_01v8 ad=0p pd=0u as=0p ps=0u w=1e+06u l=300000u
X160 VDD.t43 B[0].t7 a_750_n504.t0 VDD.t42 sky130_fd_pr__pfet_01v8 ad=0p pd=0u as=0p ps=0u w=1e+06u l=300000u
X161 a_4887_n504.t2 B[2].t4 VDD.t55 VDD.t54 sky130_fd_pr__pfet_01v8 ad=0p pd=0u as=0p ps=0u w=1e+06u l=300000u
X162 VDD.t203 B[4].t5 a_9024_n502.t3 VDD.t202 sky130_fd_pr__pfet_01v8 ad=0p pd=0u as=0p ps=0u w=1e+06u l=300000u
X163 VDD.t28 B[2].t5 a_4475_n478.t2 VDD.t27 sky130_fd_pr__pfet_01v8 ad=0p pd=0u as=0p ps=0u w=2e+06u l=300000u
X164 a_12749_n476.t9 a_13161_n502.t6 Y[6].t4 VDD.t156 sky130_fd_pr__pfet_01v8 ad=0p pd=0u as=0p ps=0u w=2e+06u l=300000u
X165 VDD.t128 B[1].t6 a_2818_n502.t0 VDD.t127 sky130_fd_pr__pfet_01v8 ad=0p pd=0u as=0p ps=0u w=1e+06u l=300000u
X166 a_6955_n502.t1 B[3].t6 VSS.t18 VSS sky130_fd_pr__nfet_01v8 ad=0p pd=0u as=0p ps=0u w=1e+06u l=300000u
X167 Y[5].t0 a_11092_n500.t6 a_10680_n474.t0 VDD.t16 sky130_fd_pr__pfet_01v8 ad=0p pd=0u as=0p ps=0u w=2e+06u l=300000u
X168 VDD.t212 B[7].t5 a_14817_n474.t7 VDD.t211 sky130_fd_pr__pfet_01v8 ad=0p pd=0u as=0p ps=0u w=2e+06u l=300000u
X169 a_2818_n502.t3 B[1].t7 VSS.t15 VSS sky130_fd_pr__nfet_01v8 ad=0p pd=0u as=0p ps=0u w=1e+06u l=300000u
X170 a_8612_n476.t4 A[4].t7 VDD.t187 VDD.t186 sky130_fd_pr__pfet_01v8 ad=0p pd=0u as=0p ps=0u w=2e+06u l=300000u
X171 a_2406_n476.t1 A[1].t7 VDD.t82 VDD.t81 sky130_fd_pr__pfet_01v8 ad=0p pd=0u as=0p ps=0u w=2e+06u l=300000u
X172 VDD.t183 B[6].t7 a_12749_n476.t10 VDD.t182 sky130_fd_pr__pfet_01v8 ad=0p pd=0u as=0p ps=0u w=2e+06u l=300000u
X173 a_10680_n474.t9 A[5].t7 VDD.t143 VDD.t142 sky130_fd_pr__pfet_01v8 ad=0p pd=0u as=0p ps=0u w=2e+06u l=300000u
X174 VSS.t22 A[7].t6 a_14390_219.t3 VSS sky130_fd_pr__nfet_01v8 ad=0p pd=0u as=0p ps=0u w=1e+06u l=300000u
X175 a_14817_n474.t0 a_15229_n500.t6 Y[7].t0 VDD.t6 sky130_fd_pr__pfet_01v8 ad=0p pd=0u as=0p ps=0u w=2e+06u l=300000u
X176 VDD.t177 B[3].t7 a_6543_n476.t7 VDD.t176 sky130_fd_pr__pfet_01v8 ad=0p pd=0u as=0p ps=0u w=2e+06u l=300000u
X177 a_9024_n502.t2 B[4].t6 VDD.t198 VDD.t197 sky130_fd_pr__pfet_01v8 ad=0p pd=0u as=0p ps=0u w=1e+06u l=300000u
X178 a_12749_n476.t0 a_13161_n502.t7 Y[6].t3 VDD.t10 sky130_fd_pr__pfet_01v8 ad=0p pd=0u as=0p ps=0u w=2e+06u l=300000u
X179 a_4829_n1210.t0 A[2].t7 Y[2].t6 VSS sky130_fd_pr__nfet_01v8 ad=0p pd=0u as=0p ps=0u w=2e+06u l=300000u
X180 VDD.t110 B[7].t6 a_14817_n474.t6 VDD.t109 sky130_fd_pr__pfet_01v8 ad=0p pd=0u as=0p ps=0u w=2e+06u l=300000u
X181 Y[2].t2 a_4048_215.t7 a_4475_n478.t6 VDD.t96 sky130_fd_pr__pfet_01v8 ad=0p pd=0u as=0p ps=0u w=2e+06u l=300000u
X182 VSS.t21 B[7].t7 a_15171_n1206.t1 VSS sky130_fd_pr__nfet_01v8 ad=0p pd=0u as=0p ps=0u w=2e+06u l=300000u
X183 VSS.t2 B[2].t6 a_4829_n1210.t1 VSS sky130_fd_pr__nfet_01v8 ad=0p pd=0u as=0p ps=0u w=2e+06u l=300000u
X184 VDD.t72 A[7].t7 a_14390_219.t1 VDD.t71 sky130_fd_pr__pfet_01v8 ad=0p pd=0u as=0p ps=0u w=1e+06u l=300000u
X185 a_14935_n1206.t0 a_15229_n500.t7 VSS.t4 VSS sky130_fd_pr__nfet_01v8 ad=0p pd=0u as=0p ps=0u w=2e+06u l=300000u
X186 a_10798_n1206.t1 a_11092_n500.t7 VSS.t17 VSS sky130_fd_pr__nfet_01v8 ad=0p pd=0u as=0p ps=0u w=2e+06u l=300000u
X187 VDD.t169 B[2].t7 a_4887_n504.t3 VDD.t168 sky130_fd_pr__pfet_01v8 ad=0p pd=0u as=0p ps=0u w=1e+06u l=300000u
X188 a_11092_n500.t0 B[5].t7 VDD.t201 VDD.t200 sky130_fd_pr__pfet_01v8 ad=0p pd=0u as=0p ps=0u w=1e+06u l=300000u
X189 Y[4].t2 a_8185_217.t7 a_8730_n1208.t1 VSS sky130_fd_pr__nfet_01v8 ad=0p pd=0u as=0p ps=0u w=2e+06u l=300000u
X190 Y[0].t3 a_n89_215.t7 a_456_n1210.t0 VSS sky130_fd_pr__nfet_01v8 ad=0p pd=0u as=0p ps=0u w=2e+06u l=300000u
X191 a_9024_n502.t0 B[4].t7 VDD.t30 VDD.t29 sky130_fd_pr__pfet_01v8 ad=0p pd=0u as=0p ps=0u w=1e+06u l=300000u
R0 a_6955_n502.n1 a_6955_n502.t5 318.922
R1 a_6955_n502.n0 a_6955_n502.t4 274.739
R2 a_6955_n502.n0 a_6955_n502.t7 274.739
R3 a_6955_n502.n1 a_6955_n502.t6 269.116
R4 a_6955_n502.t5 a_6955_n502.n0 179.946
R5 a_6955_n502.n2 a_6955_n502.n1 107.263
R6 a_6955_n502.n3 a_6955_n502.t3 29.444
R7 a_6955_n502.n4 a_6955_n502.t2 28.565
R8 a_6955_n502.t0 a_6955_n502.n4 28.565
R9 a_6955_n502.n2 a_6955_n502.t1 18.145
R10 a_6955_n502.n3 a_6955_n502.n2 2.878
R11 a_6955_n502.n4 a_6955_n502.n3 0.764
R12 Y[3].n7 Y[3].n6 194.965
R13 Y[3].n4 Y[3].n2 157.665
R14 Y[3].n4 Y[3].n3 122.999
R15 Y[3].n6 Y[3].n0 90.436
R16 Y[3].n5 Y[3].n1 90.416
R17 Y[3].n6 Y[3].n5 74.302
R18 Y[3].n5 Y[3].n4 50.575
R19 Y[3].n0 Y[3].t2 14.282
R20 Y[3].n0 Y[3].t0 14.282
R21 Y[3].n1 Y[3].t1 14.282
R22 Y[3].n1 Y[3].t7 14.282
R23 Y[3].n3 Y[3].t5 14.282
R24 Y[3].n3 Y[3].t3 14.282
R25 Y[3].n2 Y[3].t4 8.7
R26 Y[3].n2 Y[3].t6 8.7
R27 Y[3] Y[3].n7 0.03
R28 Y[3].n7 Y[3] 0.028
R29 a_6543_n476.n2 a_6543_n476.n0 267.767
R30 a_6543_n476.n6 a_6543_n476.t9 16.058
R31 a_6543_n476.n4 a_6543_n476.t4 16.058
R32 a_6543_n476.n5 a_6543_n476.t11 14.282
R33 a_6543_n476.n5 a_6543_n476.t10 14.282
R34 a_6543_n476.n3 a_6543_n476.t5 14.282
R35 a_6543_n476.n3 a_6543_n476.t6 14.282
R36 a_6543_n476.n1 a_6543_n476.t7 14.282
R37 a_6543_n476.n1 a_6543_n476.t2 14.282
R38 a_6543_n476.n0 a_6543_n476.t8 14.282
R39 a_6543_n476.n0 a_6543_n476.t3 14.282
R40 a_6543_n476.n9 a_6543_n476.t1 14.282
R41 a_6543_n476.t0 a_6543_n476.n9 14.282
R42 a_6543_n476.n9 a_6543_n476.n8 1.511
R43 a_6543_n476.n6 a_6543_n476.n5 0.999
R44 a_6543_n476.n4 a_6543_n476.n3 0.999
R45 a_6543_n476.n8 a_6543_n476.n2 0.669
R46 a_6543_n476.n7 a_6543_n476.n6 0.575
R47 a_6543_n476.n8 a_6543_n476.n7 0.227
R48 a_6543_n476.n7 a_6543_n476.n4 0.2
R49 a_6543_n476.n2 a_6543_n476.n1 0.001
R50 VDD.t180 VDD.t4 413.681
R51 VDD.t178 VDD.t90 413.681
R52 VDD.t172 VDD.t138 413.681
R53 VDD.t211 VDD.t111 413.681
R54 VDD.t205 VDD.t29 413.681
R55 VDD.t118 VDD.t120 413.681
R56 VDD.t218 VDD.t236 413.681
R57 VDD.t194 VDD.t87 413.681
R58 VDD.t132 VDD.t83 345.987
R59 VDD.t83 VDD.t113 345.987
R60 VDD.t168 VDD.t54 345.987
R61 VDD.t4 VDD.t168 345.987
R62 VDD.t94 VDD.t159 345.987
R63 VDD.t159 VDD.t150 345.987
R64 VDD.t140 VDD.t166 345.987
R65 VDD.t90 VDD.t140 345.987
R66 VDD.t39 VDD.t163 345.987
R67 VDD.t163 VDD.t56 345.987
R68 VDD.t48 VDD.t200 345.987
R69 VDD.t138 VDD.t48 345.987
R70 VDD.t20 VDD.t130 345.987
R71 VDD.t130 VDD.t71 345.987
R72 VDD.t134 VDD.t65 345.987
R73 VDD.t111 VDD.t134 345.987
R74 VDD.t174 VDD.t228 345.987
R75 VDD.t228 VDD.t232 345.987
R76 VDD.t202 VDD.t197 345.987
R77 VDD.t29 VDD.t202 345.987
R78 VDD.t92 VDD.t161 345.987
R79 VDD.t161 VDD.t78 345.987
R80 VDD.t85 VDD.t122 345.987
R81 VDD.t120 VDD.t85 345.987
R82 VDD.t62 VDD.t226 345.987
R83 VDD.t226 VDD.t44 345.987
R84 VDD.t127 VDD.t0 345.987
R85 VDD.t236 VDD.t127 345.987
R86 VDD.t148 VDD.t116 345.987
R87 VDD.t116 VDD.t216 345.987
R88 VDD.t42 VDD.t76 345.987
R89 VDD.t87 VDD.t42 345.987
R90 VDD.t96 VDD.t132 312.28
R91 VDD.t209 VDD.t94 312.28
R92 VDD.t165 VDD.t39 312.28
R93 VDD.t184 VDD.t20 312.28
R94 VDD.t80 VDD.t174 312.28
R95 VDD.t37 VDD.t92 312.28
R96 VDD.t185 VDD.t62 312.28
R97 VDD.t9 VDD.t148 312.28
R98 VDD.n149 VDD.t27 170.677
R99 VDD.n124 VDD.t176 170.677
R100 VDD.n45 VDD.t24 170.677
R101 VDD.n95 VDD.t109 170.677
R102 VDD.n20 VDD.t31 170.677
R103 VDD.n70 VDD.t182 170.677
R104 VDD.n174 VDD.t214 170.677
R105 VDD.n199 VDD.t60 170.677
R106 VDD.n150 VDD.n149 151.379
R107 VDD.n125 VDD.n124 151.379
R108 VDD.n46 VDD.n45 151.379
R109 VDD.n96 VDD.n95 151.379
R110 VDD.n21 VDD.n20 151.379
R111 VDD.n71 VDD.n70 151.379
R112 VDD.n175 VDD.n174 151.379
R113 VDD.n200 VDD.n199 151.379
R114 VDD.n149 VDD.n148 115.932
R115 VDD.n124 VDD.n123 115.932
R116 VDD.n45 VDD.n44 115.932
R117 VDD.n95 VDD.n94 115.932
R118 VDD.n20 VDD.n19 115.932
R119 VDD.n70 VDD.n69 115.932
R120 VDD.n174 VDD.n173 115.932
R121 VDD.n199 VDD.n198 115.932
R122 VDD.t11 VDD.t27 53.244
R123 VDD.t14 VDD.t96 53.244
R124 VDD.t75 VDD.t176 53.244
R125 VDD.t2 VDD.t209 53.244
R126 VDD.t144 VDD.t165 53.244
R127 VDD.t152 VDD.t184 53.244
R128 VDD.t224 VDD.t80 53.244
R129 VDD.t234 VDD.t37 53.244
R130 VDD.t154 VDD.t214 53.244
R131 VDD.t188 VDD.t185 53.244
R132 VDD.t155 VDD.t60 53.244
R133 VDD.t18 VDD.t9 53.244
R134 VDD.t102 VDD.n144 44.17
R135 VDD.t27 VDD.n145 44.17
R136 VDD.n147 VDD.t22 44.17
R137 VDD.n146 VDD.t14 44.17
R138 VDD.t50 VDD.n119 44.17
R139 VDD.t176 VDD.n120 44.17
R140 VDD.n122 VDD.t7 44.17
R141 VDD.n121 VDD.t2 44.17
R142 VDD.t136 VDD.n40 44.17
R143 VDD.t24 VDD.n41 44.17
R144 VDD.n43 VDD.t33 44.17
R145 VDD.n42 VDD.t144 44.17
R146 VDD.t68 VDD.n90 44.17
R147 VDD.t109 VDD.n91 44.17
R148 VDD.n93 VDD.t52 44.17
R149 VDD.n92 VDD.t152 44.17
R150 VDD.t207 VDD.n15 44.17
R151 VDD.t31 VDD.n16 44.17
R152 VDD.n18 VDD.t230 44.17
R153 VDD.n17 VDD.t224 44.17
R154 VDD.t99 VDD.n65 44.17
R155 VDD.t182 VDD.n66 44.17
R156 VDD.n68 VDD.t58 44.17
R157 VDD.n67 VDD.t234 44.17
R158 VDD.t157 VDD.n169 44.17
R159 VDD.t214 VDD.n170 44.17
R160 VDD.n172 VDD.t190 44.17
R161 VDD.n171 VDD.t188 44.17
R162 VDD.t192 VDD.n194 44.17
R163 VDD.t60 VDD.n195 44.17
R164 VDD.n197 VDD.t12 44.17
R165 VDD.n196 VDD.t18 44.17
R166 VDD.n145 VDD.t102 41.273
R167 VDD.t222 VDD.n147 41.273
R168 VDD.t22 VDD.n146 41.273
R169 VDD.n144 VDD.t180 41.273
R170 VDD.n120 VDD.t50 41.273
R171 VDD.t46 VDD.n122 41.273
R172 VDD.t7 VDD.n121 41.273
R173 VDD.n119 VDD.t178 41.273
R174 VDD.n41 VDD.t136 41.273
R175 VDD.t142 VDD.n43 41.273
R176 VDD.t33 VDD.n42 41.273
R177 VDD.n40 VDD.t172 41.273
R178 VDD.n91 VDD.t68 41.273
R179 VDD.t107 VDD.n93 41.273
R180 VDD.t52 VDD.n92 41.273
R181 VDD.n90 VDD.t211 41.273
R182 VDD.n16 VDD.t207 41.273
R183 VDD.t186 VDD.n18 41.273
R184 VDD.t230 VDD.n17 41.273
R185 VDD.n15 VDD.t205 41.273
R186 VDD.n66 VDD.t99 41.273
R187 VDD.t124 VDD.n68 41.273
R188 VDD.t58 VDD.n67 41.273
R189 VDD.n65 VDD.t118 41.273
R190 VDD.n170 VDD.t157 41.273
R191 VDD.t81 VDD.n172 41.273
R192 VDD.t190 VDD.n171 41.273
R193 VDD.n169 VDD.t218 41.273
R194 VDD.n195 VDD.t192 41.273
R195 VDD.t146 VDD.n197 41.273
R196 VDD.t12 VDD.n196 41.273
R197 VDD.n194 VDD.t194 41.273
R198 VDD.n148 VDD.t11 29.891
R199 VDD.n123 VDD.t75 29.891
R200 VDD.n44 VDD.t17 29.891
R201 VDD.n94 VDD.t6 29.891
R202 VDD.n19 VDD.t36 29.891
R203 VDD.n69 VDD.t156 29.891
R204 VDD.n173 VDD.t154 29.891
R205 VDD.n198 VDD.t155 29.891
R206 VDD.n131 VDD.t133 28.664
R207 VDD.n138 VDD.t5 28.664
R208 VDD.n106 VDD.t95 28.664
R209 VDD.n113 VDD.t91 28.664
R210 VDD.n35 VDD.t40 28.664
R211 VDD.n27 VDD.t139 28.664
R212 VDD.n85 VDD.t21 28.664
R213 VDD.n77 VDD.t112 28.664
R214 VDD.n10 VDD.t175 28.664
R215 VDD.n2 VDD.t30 28.664
R216 VDD.n60 VDD.t93 28.664
R217 VDD.n52 VDD.t121 28.664
R218 VDD.n156 VDD.t63 28.664
R219 VDD.n163 VDD.t237 28.664
R220 VDD.n181 VDD.t149 28.664
R221 VDD.n188 VDD.t88 28.664
R222 VDD.n132 VDD.t84 28.565
R223 VDD.n132 VDD.t114 28.565
R224 VDD.n139 VDD.t55 28.565
R225 VDD.n139 VDD.t169 28.565
R226 VDD.n107 VDD.t160 28.565
R227 VDD.n107 VDD.t151 28.565
R228 VDD.n114 VDD.t167 28.565
R229 VDD.n114 VDD.t141 28.565
R230 VDD.n36 VDD.t164 28.565
R231 VDD.n36 VDD.t57 28.565
R232 VDD.n28 VDD.t201 28.565
R233 VDD.n28 VDD.t49 28.565
R234 VDD.n86 VDD.t131 28.565
R235 VDD.n86 VDD.t72 28.565
R236 VDD.n78 VDD.t66 28.565
R237 VDD.n78 VDD.t135 28.565
R238 VDD.n11 VDD.t229 28.565
R239 VDD.n11 VDD.t233 28.565
R240 VDD.n3 VDD.t198 28.565
R241 VDD.n3 VDD.t203 28.565
R242 VDD.n61 VDD.t162 28.565
R243 VDD.n61 VDD.t79 28.565
R244 VDD.n53 VDD.t123 28.565
R245 VDD.n53 VDD.t86 28.565
R246 VDD.n157 VDD.t227 28.565
R247 VDD.n157 VDD.t45 28.565
R248 VDD.n164 VDD.t1 28.565
R249 VDD.n164 VDD.t128 28.565
R250 VDD.n182 VDD.t117 28.565
R251 VDD.n182 VDD.t217 28.565
R252 VDD.n189 VDD.t77 28.565
R253 VDD.n189 VDD.t43 28.565
R254 VDD.n148 VDD.t222 20.998
R255 VDD.n123 VDD.t46 20.998
R256 VDD.n44 VDD.t142 20.998
R257 VDD.n94 VDD.t107 20.998
R258 VDD.n19 VDD.t186 20.998
R259 VDD.n69 VDD.t124 20.998
R260 VDD.n173 VDD.t81 20.998
R261 VDD.n198 VDD.t146 20.998
R262 VDD.n131 VDD.t15 14.284
R263 VDD.n138 VDD.t181 14.284
R264 VDD.n106 VDD.t3 14.284
R265 VDD.n113 VDD.t179 14.284
R266 VDD.n35 VDD.t145 14.284
R267 VDD.n27 VDD.t173 14.284
R268 VDD.n85 VDD.t153 14.284
R269 VDD.n77 VDD.t212 14.284