* NGSPICE file created from shifter_unit_pex.ext - technology: sky130B

.subckt shifter_unit A[0] A[1] A[2] A[3] A[4] A[5] A[6] A[7] Y[0] Y[1] Y[2] Y[3]
+ Y[4] Y[5] Y[6] Y[7] dir VSS VDD
X0 VDD.t129 dir.t0 a_21725_66.t2 VDD.t128 sky130_fd_pr__pfet_01v8 ad=0p pd=0u as=0p ps=0u w=2e+06u l=300000u
X1 VDD.t127 dir.t1 a_2268_62.t3 VDD.t126 sky130_fd_pr__pfet_01v8 ad=0p pd=0u as=0p ps=0u w=1e+06u l=300000u
X2 a_16270_n1271.t1 a_14890_62.t4 a_15798_62.t2 VSS sky130_fd_pr__nfet_01v8 ad=0p pd=0u as=0p ps=0u w=2e+06u l=300000u
X3 a_18022_66.t3 dir.t2 VDD.t125 VDD.t124 sky130_fd_pr__pfet_01v8 ad=0p pd=0u as=0p ps=0u w=1e+06u l=300000u
X4 VDD.t123 dir.t3 a_5959_66.t4 VDD.t122 sky130_fd_pr__pfet_01v8 ad=0p pd=0u as=0p ps=0u w=2e+06u l=300000u
X5 a_12654_62.t6 A[3].t0 a_12305_62.t9 VDD.t228 sky130_fd_pr__pfet_01v8 ad=0p pd=0u as=0p ps=0u w=2e+06u l=300000u
X6 VDD.t30 a_32_62.t8 Y[0].t3 VDD.t29 sky130_fd_pr__pfet_01v8 ad=0p pd=0u as=0p ps=0u w=1e+06u l=300000u
X7 a_9103_66.t3 A[2].t0 a_9452_66.t2 VDD.t175 sky130_fd_pr__pfet_01v8 ad=0p pd=0u as=0p ps=0u w=2e+06u l=300000u
X8 Y[6].t3 a_18930_66.t8 VDD.t3 VDD.t2 sky130_fd_pr__pfet_01v8 ad=0p pd=0u as=0p ps=0u w=1e+06u l=300000u
X9 a_3176_62.t7 a_2268_62.t4 a_2827_62.t11 VDD.t26 sky130_fd_pr__pfet_01v8 ad=0p pd=0u as=0p ps=0u w=2e+06u l=300000u
X10 Y[0].t0 a_32_62.t9 VSS.t32 VSS sky130_fd_pr__nfet_01v8 ad=0p pd=0u as=0p ps=0u w=1e+06u l=300000u
X11 a_n317_62.t11 A[1].t0 VDD.t189 VDD.t188 sky130_fd_pr__pfet_01v8 ad=0p pd=0u as=0p ps=0u w=2e+06u l=300000u
X12 VDD.t121 dir.t4 a_8544_66.t3 VDD.t120 sky130_fd_pr__pfet_01v8 ad=0p pd=0u as=0p ps=0u w=1e+06u l=300000u
X13 VDD.t160 a_12654_62.t8 Y[4].t3 VDD.t159 sky130_fd_pr__pfet_01v8 ad=0p pd=0u as=0p ps=0u w=1e+06u l=300000u
X14 a_12890_n1271.t1 A[5].t0 VSS.t14 VSS sky130_fd_pr__nfet_01v8 ad=0p pd=0u as=0p ps=0u w=2e+06u l=300000u
X15 VDD.t119 dir.t5 a_9103_66.t6 VDD.t118 sky130_fd_pr__pfet_01v8 ad=0p pd=0u as=0p ps=0u w=2e+06u l=300000u
X16 VSS.t9 dir.t6 a_21166_66.t0 VSS sky130_fd_pr__nfet_01v8 ad=0p pd=0u as=0p ps=0u w=1e+06u l=300000u
X17 a_9452_66.t0 a_8544_66.t4 a_9103_66.t0 VDD.t6 sky130_fd_pr__pfet_01v8 ad=0p pd=0u as=0p ps=0u w=2e+06u l=300000u
X18 VSS.t8 dir.t7 a_18022_66.t0 VSS sky130_fd_pr__nfet_01v8 ad=0p pd=0u as=0p ps=0u w=1e+06u l=300000u
X19 VDD.t117 dir.t8 a_11746_62.t3 VDD.t116 sky130_fd_pr__pfet_01v8 ad=0p pd=0u as=0p ps=0u w=1e+06u l=300000u
X20 VSS.t30 A[0].t0 a_3648_n1271.t0 VSS sky130_fd_pr__nfet_01v8 ad=0p pd=0u as=0p ps=0u w=2e+06u l=300000u
X21 a_268_n1271.t1 A[1].t1 VSS.t16 VSS sky130_fd_pr__nfet_01v8 ad=0p pd=0u as=0p ps=0u w=2e+06u l=300000u
X22 a_15449_62.t11 A[4].t0 a_15798_62.t7 VDD.t223 sky130_fd_pr__pfet_01v8 ad=0p pd=0u as=0p ps=0u w=2e+06u l=300000u
X23 VDD.t177 a_9452_66.t8 Y[3].t3 VDD.t176 sky130_fd_pr__pfet_01v8 ad=0p pd=0u as=0p ps=0u w=1e+06u l=300000u
X24 a_12305_62.t4 dir.t9 VDD.t109 VDD.t108 sky130_fd_pr__pfet_01v8 ad=0p pd=0u as=0p ps=0u w=2e+06u l=300000u
X25 a_32_62.t1 VSS.t34 a_n317_62.t5 VDD.t184 sky130_fd_pr__pfet_01v8 ad=0p pd=0u as=0p ps=0u w=2e+06u l=300000u
X26 a_32_62.t0 dir.t10 a_268_n1271.t0 VSS sky130_fd_pr__nfet_01v8 ad=0p pd=0u as=0p ps=0u w=2e+06u l=300000u
X27 a_15449_62.t8 a_14890_62.t5 a_15798_62.t5 VDD.t174 sky130_fd_pr__pfet_01v8 ad=0p pd=0u as=0p ps=0u w=2e+06u l=300000u
X28 a_15449_62.t5 A[6].t0 VDD.t199 VDD.t198 sky130_fd_pr__pfet_01v8 ad=0p pd=0u as=0p ps=0u w=2e+06u l=300000u
X29 a_n317_62.t8 a_n876_62.t4 a_32_62.t7 VDD.t219 sky130_fd_pr__pfet_01v8 ad=0p pd=0u as=0p ps=0u w=2e+06u l=300000u
X30 VDD.t115 dir.t11 a_n317_62.t2 VDD.t114 sky130_fd_pr__pfet_01v8 ad=0p pd=0u as=0p ps=0u w=2e+06u l=300000u
X31 a_504_n1271.t1 a_n876_62.t5 a_32_62.t4 VSS sky130_fd_pr__nfet_01v8 ad=0p pd=0u as=0p ps=0u w=2e+06u l=300000u
X32 VDD.t113 dir.t12 a_18022_66.t2 VDD.t112 sky130_fd_pr__pfet_01v8 ad=0p pd=0u as=0p ps=0u w=1e+06u l=300000u
X33 Y[1].t3 a_3176_62.t8 VDD.t32 VDD.t31 sky130_fd_pr__pfet_01v8 ad=0p pd=0u as=0p ps=0u w=1e+06u l=300000u
X34 a_21725_66.t9 VSS.t35 VDD.t204 VDD.t203 sky130_fd_pr__pfet_01v8 ad=0p pd=0u as=0p ps=0u w=2e+06u l=300000u
X35 VDD.t111 dir.t13 a_2827_62.t5 VDD.t110 sky130_fd_pr__pfet_01v8 ad=0p pd=0u as=0p ps=0u w=2e+06u l=300000u
X36 a_9103_66.t7 A[4].t1 VDD.t139 VDD.t138 sky130_fd_pr__pfet_01v8 ad=0p pd=0u as=0p ps=0u w=2e+06u l=300000u
X37 VSS.t13 VSS.t12 a_504_n1271.t0 VSS sky130_fd_pr__nfet_01v8 ad=0p pd=0u as=0p ps=0u w=2e+06u l=300000u
X38 a_6308_66.t7 A[1].t2 a_5959_66.t1 VDD.t33 sky130_fd_pr__pfet_01v8 ad=0p pd=0u as=0p ps=0u w=2e+06u l=300000u
X39 a_18930_66.t4 a_18022_66.t4 a_18581_66.t7 VDD.t150 sky130_fd_pr__pfet_01v8 ad=0p pd=0u as=0p ps=0u w=2e+06u l=300000u
X40 a_12305_62.t8 A[3].t1 a_12654_62.t5 VDD.t235 sky130_fd_pr__pfet_01v8 ad=0p pd=0u as=0p ps=0u w=2e+06u l=300000u
X41 Y[0].t2 a_32_62.t10 VDD.t19 VDD.t18 sky130_fd_pr__pfet_01v8 ad=0p pd=0u as=0p ps=0u w=1e+06u l=300000u
X42 a_21725_66.t8 A[6].t1 a_22074_66.t7 VDD.t197 sky130_fd_pr__pfet_01v8 ad=0p pd=0u as=0p ps=0u w=2e+06u l=300000u
X43 a_9452_66.t3 A[2].t1 a_9103_66.t2 VDD.t9 sky130_fd_pr__pfet_01v8 ad=0p pd=0u as=0p ps=0u w=2e+06u l=300000u
X44 a_2827_62.t9 a_2268_62.t5 a_3176_62.t6 VDD.t137 sky130_fd_pr__pfet_01v8 ad=0p pd=0u as=0p ps=0u w=2e+06u l=300000u
X45 a_n317_62.t10 A[1].t3 VDD.t17 VDD.t16 sky130_fd_pr__pfet_01v8 ad=0p pd=0u as=0p ps=0u w=2e+06u l=300000u
X46 VDD.t107 dir.t14 a_8544_66.t2 VDD.t106 sky130_fd_pr__pfet_01v8 ad=0p pd=0u as=0p ps=0u w=1e+06u l=300000u
X47 VDD.t105 dir.t15 a_12305_62.t3 VDD.t104 sky130_fd_pr__pfet_01v8 ad=0p pd=0u as=0p ps=0u w=2e+06u l=300000u
X48 a_13126_n1271.t0 a_11746_62.t4 a_12654_62.t3 VSS sky130_fd_pr__nfet_01v8 ad=0p pd=0u as=0p ps=0u w=2e+06u l=300000u
X49 a_9103_66.t10 a_8544_66.t5 a_9452_66.t6 VDD.t192 sky130_fd_pr__pfet_01v8 ad=0p pd=0u as=0p ps=0u w=2e+06u l=300000u
X50 VSS.t20 A[3].t2 a_13126_n1271.t1 VSS sky130_fd_pr__nfet_01v8 ad=0p pd=0u as=0p ps=0u w=2e+06u l=300000u
X51 VSS.t22 A[4].t2 a_16270_n1271.t0 VSS sky130_fd_pr__nfet_01v8 ad=0p pd=0u as=0p ps=0u w=2e+06u l=300000u
X52 a_15798_62.t3 a_14890_62.t6 a_15449_62.t7 VDD.t220 sky130_fd_pr__pfet_01v8 ad=0p pd=0u as=0p ps=0u w=2e+06u l=300000u
X53 a_6544_n1267.t1 A[3].t3 VSS.t15 VSS sky130_fd_pr__nfet_01v8 ad=0p pd=0u as=0p ps=0u w=2e+06u l=300000u
X54 Y[5].t3 a_15798_62.t8 VDD.t145 VDD.t144 sky130_fd_pr__pfet_01v8 ad=0p pd=0u as=0p ps=0u w=1e+06u l=300000u
X55 a_9688_n1267.t1 A[4].t3 VSS.t21 VSS sky130_fd_pr__nfet_01v8 ad=0p pd=0u as=0p ps=0u w=2e+06u l=300000u
X56 a_2827_62.t2 A[2].t2 VDD.t167 VDD.t166 sky130_fd_pr__pfet_01v8 ad=0p pd=0u as=0p ps=0u w=2e+06u l=300000u
X57 VDD.t237 VSS.t36 a_21725_66.t11 VDD.t236 sky130_fd_pr__pfet_01v8 ad=0p pd=0u as=0p ps=0u w=2e+06u l=300000u
X58 VDD.t103 dir.t16 a_5400_66.t3 VDD.t102 sky130_fd_pr__pfet_01v8 ad=0p pd=0u as=0p ps=0u w=1e+06u l=300000u
X59 VDD.t201 A[4].t4 a_9103_66.t11 VDD.t200 sky130_fd_pr__pfet_01v8 ad=0p pd=0u as=0p ps=0u w=2e+06u l=300000u
X60 VSS.t27 A[6].t2 a_22546_n1267.t1 VSS sky130_fd_pr__nfet_01v8 ad=0p pd=0u as=0p ps=0u w=2e+06u l=300000u
X61 VDD.t85 dir.t17 a_18581_66.t4 VDD.t84 sky130_fd_pr__pfet_01v8 ad=0p pd=0u as=0p ps=0u w=2e+06u l=300000u
X62 a_14890_62.t3 dir.t18 VDD.t101 VDD.t100 sky130_fd_pr__pfet_01v8 ad=0p pd=0u as=0p ps=0u w=1e+06u l=300000u
X63 a_12654_62.t0 dir.t19 a_12890_n1271.t0 VSS sky130_fd_pr__nfet_01v8 ad=0p pd=0u as=0p ps=0u w=2e+06u l=300000u
X64 a_9452_66.t4 dir.t20 a_9688_n1267.t0 VSS sky130_fd_pr__nfet_01v8 ad=0p pd=0u as=0p ps=0u w=2e+06u l=300000u
X65 Y[3].t0 a_9452_66.t9 VSS.t0 VSS sky130_fd_pr__nfet_01v8 ad=0p pd=0u as=0p ps=0u w=1e+06u l=300000u
X66 a_18581_66.t6 a_18022_66.t5 a_18930_66.t5 VDD.t8 sky130_fd_pr__pfet_01v8 ad=0p pd=0u as=0p ps=0u w=2e+06u l=300000u
X67 a_9924_n1267.t1 a_8544_66.t6 a_9452_66.t7 VSS sky130_fd_pr__nfet_01v8 ad=0p pd=0u as=0p ps=0u w=2e+06u l=300000u
X68 a_2827_62.t7 A[0].t1 a_3176_62.t2 VDD.t194 sky130_fd_pr__pfet_01v8 ad=0p pd=0u as=0p ps=0u w=2e+06u l=300000u
X69 a_12654_62.t4 A[3].t4 a_12305_62.t10 VDD.t211 sky130_fd_pr__pfet_01v8 ad=0p pd=0u as=0p ps=0u w=2e+06u l=300000u
X70 a_22074_66.t6 A[6].t3 a_21725_66.t7 VDD.t196 sky130_fd_pr__pfet_01v8 ad=0p pd=0u as=0p ps=0u w=2e+06u l=300000u
X71 VDD.t99 dir.t21 a_18022_66.t1 VDD.t98 sky130_fd_pr__pfet_01v8 ad=0p pd=0u as=0p ps=0u w=1e+06u l=300000u
X72 VDD.t227 A[3].t5 a_5959_66.t9 VDD.t226 sky130_fd_pr__pfet_01v8 ad=0p pd=0u as=0p ps=0u w=2e+06u l=300000u
X73 VSS.t28 A[2].t3 a_9924_n1267.t0 VSS sky130_fd_pr__nfet_01v8 ad=0p pd=0u as=0p ps=0u w=2e+06u l=300000u
X74 a_6308_66.t6 A[1].t4 a_5959_66.t0 VDD.t28 sky130_fd_pr__pfet_01v8 ad=0p pd=0u as=0p ps=0u w=2e+06u l=300000u
X75 a_12305_62.t1 A[5].t1 VDD.t13 VDD.t12 sky130_fd_pr__pfet_01v8 ad=0p pd=0u as=0p ps=0u w=2e+06u l=300000u
X76 a_8544_66.t1 dir.t22 VDD.t87 VDD.t86 sky130_fd_pr__pfet_01v8 ad=0p pd=0u as=0p ps=0u w=1e+06u l=300000u
X77 Y[0].t1 a_32_62.t11 VDD.t21 VDD.t20 sky130_fd_pr__pfet_01v8 ad=0p pd=0u as=0p ps=0u w=1e+06u l=300000u
X78 VDD.t97 dir.t23 a_9103_66.t5 VDD.t96 sky130_fd_pr__pfet_01v8 ad=0p pd=0u as=0p ps=0u w=2e+06u l=300000u
X79 a_3412_n1271.t0 A[2].t4 VSS.t26 VSS sky130_fd_pr__nfet_01v8 ad=0p pd=0u as=0p ps=0u w=2e+06u l=300000u
X80 Y[7].t3 a_22074_66.t8 VDD.t132 VDD.t131 sky130_fd_pr__pfet_01v8 ad=0p pd=0u as=0p ps=0u w=1e+06u l=300000u
X81 a_32_62.t6 a_n876_62.t6 a_n317_62.t7 VDD.t210 sky130_fd_pr__pfet_01v8 ad=0p pd=0u as=0p ps=0u w=2e+06u l=300000u
X82 a_9103_66.t9 a_8544_66.t7 a_9452_66.t5 VDD.t173 sky130_fd_pr__pfet_01v8 ad=0p pd=0u as=0p ps=0u w=2e+06u l=300000u
X83 VSS.t7 dir.t24 a_5400_66.t0 VSS sky130_fd_pr__nfet_01v8 ad=0p pd=0u as=0p ps=0u w=1e+06u l=300000u
X84 a_21725_66.t0 VSS.t37 VDD.t23 VDD.t22 sky130_fd_pr__pfet_01v8 ad=0p pd=0u as=0p ps=0u w=2e+06u l=300000u
X85 a_3176_62.t0 dir.t25 a_3412_n1271.t1 VSS sky130_fd_pr__nfet_01v8 ad=0p pd=0u as=0p ps=0u w=2e+06u l=300000u
X86 Y[2].t3 a_6308_66.t8 VDD.t169 VDD.t168 sky130_fd_pr__pfet_01v8 ad=0p pd=0u as=0p ps=0u w=1e+06u l=300000u
X87 Y[3].t2 a_9452_66.t10 VDD.t143 VDD.t142 sky130_fd_pr__pfet_01v8 ad=0p pd=0u as=0p ps=0u w=1e+06u l=300000u
X88 VSS.t6 dir.t26 a_11746_62.t0 VSS sky130_fd_pr__nfet_01v8 ad=0p pd=0u as=0p ps=0u w=1e+06u l=300000u
X89 VSS.t5 dir.t27 a_8544_66.t0 VSS sky130_fd_pr__nfet_01v8 ad=0p pd=0u as=0p ps=0u w=1e+06u l=300000u
X90 Y[2].t0 a_6308_66.t9 VSS.t18 VSS sky130_fd_pr__nfet_01v8 ad=0p pd=0u as=0p ps=0u w=1e+06u l=300000u
X91 VDD.t25 a_15798_62.t9 Y[5].t2 VDD.t24 sky130_fd_pr__pfet_01v8 ad=0p pd=0u as=0p ps=0u w=1e+06u l=300000u
X92 a_15449_62.t2 dir.t28 VDD.t95 VDD.t94 sky130_fd_pr__pfet_01v8 ad=0p pd=0u as=0p ps=0u w=2e+06u l=300000u
X93 VDD.t182 A[2].t5 a_2827_62.t1 VDD.t181 sky130_fd_pr__pfet_01v8 ad=0p pd=0u as=0p ps=0u w=2e+06u l=300000u
X94 VDD.t93 dir.t29 a_11746_62.t2 VDD.t92 sky130_fd_pr__pfet_01v8 ad=0p pd=0u as=0p ps=0u w=1e+06u l=300000u
X95 a_5400_66.t2 dir.t30 VDD.t91 VDD.t90 sky130_fd_pr__pfet_01v8 ad=0p pd=0u as=0p ps=0u w=1e+06u l=300000u
X96 VDD.t89 dir.t31 a_21166_66.t3 VDD.t88 sky130_fd_pr__pfet_01v8 ad=0p pd=0u as=0p ps=0u w=1e+06u l=300000u
X97 a_12305_62.t5 a_11746_62.t5 a_12654_62.t1 VDD.t130 sky130_fd_pr__pfet_01v8 ad=0p pd=0u as=0p ps=0u w=2e+06u l=300000u
X98 VDD.t83 dir.t32 a_14890_62.t2 VDD.t82 sky130_fd_pr__pfet_01v8 ad=0p pd=0u as=0p ps=0u w=1e+06u l=300000u
X99 a_21725_66.t6 a_21166_66.t4 a_22074_66.t4 VDD.t179 sky130_fd_pr__pfet_01v8 ad=0p pd=0u as=0p ps=0u w=2e+06u l=300000u
X100 VDD.t81 dir.t33 a_18581_66.t3 VDD.t80 sky130_fd_pr__pfet_01v8 ad=0p pd=0u as=0p ps=0u w=2e+06u l=300000u
X101 a_5959_66.t8 A[1].t5 a_6308_66.t5 VDD.t213 sky130_fd_pr__pfet_01v8 ad=0p pd=0u as=0p ps=0u w=2e+06u l=300000u
X102 a_n876_62.t3 dir.t34 VDD.t79 VDD.t78 sky130_fd_pr__pfet_01v8 ad=0p pd=0u as=0p ps=0u w=1e+06u l=300000u
X103 a_3176_62.t3 A[0].t2 a_2827_62.t8 VDD.t202 sky130_fd_pr__pfet_01v8 ad=0p pd=0u as=0p ps=0u w=2e+06u l=300000u
X104 a_5959_66.t7 a_5400_66.t4 a_6308_66.t4 VDD.t208 sky130_fd_pr__pfet_01v8 ad=0p pd=0u as=0p ps=0u w=2e+06u l=300000u
X105 Y[3].t1 a_9452_66.t11 VDD.t187 VDD.t186 sky130_fd_pr__pfet_01v8 ad=0p pd=0u as=0p ps=0u w=1e+06u l=300000u
X106 a_5959_66.t10 A[3].t6 VDD.t230 VDD.t229 sky130_fd_pr__pfet_01v8 ad=0p pd=0u as=0p ps=0u w=2e+06u l=300000u
X107 VDD.t191 A[5].t2 a_12305_62.t6 VDD.t190 sky130_fd_pr__pfet_01v8 ad=0p pd=0u as=0p ps=0u w=2e+06u l=300000u
X108 VSS.t4 dir.t35 a_2268_62.t0 VSS sky130_fd_pr__nfet_01v8 ad=0p pd=0u as=0p ps=0u w=1e+06u l=300000u
X109 a_18930_66.t1 A[5].t3 a_18581_66.t11 VDD.t172 sky130_fd_pr__pfet_01v8 ad=0p pd=0u as=0p ps=0u w=2e+06u l=300000u
X110 a_9103_66.t4 dir.t36 VDD.t77 VDD.t76 sky130_fd_pr__pfet_01v8 ad=0p pd=0u as=0p ps=0u w=2e+06u l=300000u
X111 VSS.t3 dir.t37 a_n876_62.t0 VSS sky130_fd_pr__nfet_01v8 ad=0p pd=0u as=0p ps=0u w=1e+06u l=300000u
X112 a_n317_62.t6 a_n876_62.t7 a_32_62.t5 VDD.t209 sky130_fd_pr__pfet_01v8 ad=0p pd=0u as=0p ps=0u w=2e+06u l=300000u
X113 VDD.t5 A[7].t0 a_18581_66.t1 VDD.t4 sky130_fd_pr__pfet_01v8 ad=0p pd=0u as=0p ps=0u w=2e+06u l=300000u
X114 Y[7].t2 a_22074_66.t9 VDD.t136 VDD.t135 sky130_fd_pr__pfet_01v8 ad=0p pd=0u as=0p ps=0u w=1e+06u l=300000u
X115 VDD.t218 a_6308_66.t10 Y[2].t2 VDD.t217 sky130_fd_pr__pfet_01v8 ad=0p pd=0u as=0p ps=0u w=1e+06u l=300000u
X116 a_5959_66.t3 dir.t38 VDD.t75 VDD.t74 sky130_fd_pr__pfet_01v8 ad=0p pd=0u as=0p ps=0u w=2e+06u l=300000u
X117 a_15798_62.t0 dir.t39 a_16034_n1271.t0 VSS sky130_fd_pr__nfet_01v8 ad=0p pd=0u as=0p ps=0u w=2e+06u l=300000u
X118 Y[5].t1 a_15798_62.t10 VDD.t149 VDD.t148 sky130_fd_pr__pfet_01v8 ad=0p pd=0u as=0p ps=0u w=1e+06u l=300000u
X119 a_6308_66.t0 dir.t40 a_6544_n1267.t0 VSS sky130_fd_pr__nfet_01v8 ad=0p pd=0u as=0p ps=0u w=2e+06u l=300000u
X120 VDD.t73 dir.t41 a_15449_62.t1 VDD.t72 sky130_fd_pr__pfet_01v8 ad=0p pd=0u as=0p ps=0u w=2e+06u l=300000u
X121 VDD.t71 dir.t42 a_n876_62.t2 VDD.t70 sky130_fd_pr__pfet_01v8 ad=0p pd=0u as=0p ps=0u w=1e+06u l=300000u
X122 VDD.t69 dir.t43 a_2268_62.t2 VDD.t68 sky130_fd_pr__pfet_01v8 ad=0p pd=0u as=0p ps=0u w=1e+06u l=300000u
X123 a_11746_62.t1 dir.t44 VDD.t67 VDD.t66 sky130_fd_pr__pfet_01v8 ad=0p pd=0u as=0p ps=0u w=1e+06u l=300000u
X124 VDD.t65 dir.t45 a_5400_66.t1 VDD.t64 sky130_fd_pr__pfet_01v8 ad=0p pd=0u as=0p ps=0u w=1e+06u l=300000u
X125 a_22310_n1267.t1 VSS.t10 VSS.t11 VSS sky130_fd_pr__nfet_01v8 ad=0p pd=0u as=0p ps=0u w=2e+06u l=300000u
X126 a_21166_66.t2 dir.t46 VDD.t63 VDD.t62 sky130_fd_pr__pfet_01v8 ad=0p pd=0u as=0p ps=0u w=1e+06u l=300000u
X127 a_6780_n1267.t0 a_5400_66.t5 a_6308_66.t3 VSS sky130_fd_pr__nfet_01v8 ad=0p pd=0u as=0p ps=0u w=2e+06u l=300000u
X128 VDD.t61 dir.t47 a_21725_66.t1 VDD.t60 sky130_fd_pr__pfet_01v8 ad=0p pd=0u as=0p ps=0u w=2e+06u l=300000u
X129 a_18581_66.t2 dir.t48 VDD.t59 VDD.t58 sky130_fd_pr__pfet_01v8 ad=0p pd=0u as=0p ps=0u w=2e+06u l=300000u
X130 a_12305_62.t7 a_11746_62.t6 a_12654_62.t2 VDD.t193 sky130_fd_pr__pfet_01v8 ad=0p pd=0u as=0p ps=0u w=2e+06u l=300000u
X131 Y[4].t2 a_12654_62.t9 VDD.t206 VDD.t205 sky130_fd_pr__pfet_01v8 ad=0p pd=0u as=0p ps=0u w=1e+06u l=300000u
X132 a_21725_66.t10 a_21166_66.t5 a_22074_66.t3 VDD.t207 sky130_fd_pr__pfet_01v8 ad=0p pd=0u as=0p ps=0u w=2e+06u l=300000u
X133 a_6308_66.t2 a_5400_66.t6 a_5959_66.t6 VDD.t171 sky130_fd_pr__pfet_01v8 ad=0p pd=0u as=0p ps=0u w=2e+06u l=300000u
X134 a_15449_62.t6 a_14890_62.t7 a_15798_62.t4 VDD.t212 sky130_fd_pr__pfet_01v8 ad=0p pd=0u as=0p ps=0u w=2e+06u l=300000u
X135 a_3176_62.t1 A[0].t3 a_2827_62.t6 VDD.t183 sky130_fd_pr__pfet_01v8 ad=0p pd=0u as=0p ps=0u w=2e+06u l=300000u
X136 Y[1].t0 a_3176_62.t9 VSS.t24 VSS sky130_fd_pr__nfet_01v8 ad=0p pd=0u as=0p ps=0u w=1e+06u l=300000u
X137 Y[6].t2 a_18930_66.t9 VDD.t239 VDD.t238 sky130_fd_pr__pfet_01v8 ad=0p pd=0u as=0p ps=0u w=1e+06u l=300000u
X138 a_16034_n1271.t1 A[6].t4 VSS.t17 VSS sky130_fd_pr__nfet_01v8 ad=0p pd=0u as=0p ps=0u w=2e+06u l=300000u
X139 a_3648_n1271.t1 a_2268_62.t6 a_3176_62.t4 VSS sky130_fd_pr__nfet_01v8 ad=0p pd=0u as=0p ps=0u w=2e+06u l=300000u
X140 a_15798_62.t6 A[4].t5 a_15449_62.t10 VDD.t221 sky130_fd_pr__pfet_01v8 ad=0p pd=0u as=0p ps=0u w=2e+06u l=300000u
X141 a_12305_62.t0 A[5].t4 VDD.t11 VDD.t10 sky130_fd_pr__pfet_01v8 ad=0p pd=0u as=0p ps=0u w=2e+06u l=300000u
X142 Y[6].t0 a_18930_66.t10 VSS.t23 VSS sky130_fd_pr__nfet_01v8 ad=0p pd=0u as=0p ps=0u w=1e+06u l=300000u
X143 a_22074_66.t5 A[6].t5 a_21725_66.t4 VDD.t158 sky130_fd_pr__pfet_01v8 ad=0p pd=0u as=0p ps=0u w=2e+06u l=300000u
X144 Y[2].t1 a_6308_66.t11 VDD.t216 VDD.t215 sky130_fd_pr__pfet_01v8 ad=0p pd=0u as=0p ps=0u w=1e+06u l=300000u
X145 a_18581_66.t10 A[5].t5 a_18930_66.t2 VDD.t195 sky130_fd_pr__pfet_01v8 ad=0p pd=0u as=0p ps=0u w=2e+06u l=300000u
X146 a_18581_66.t5 a_18022_66.t6 a_18930_66.t6 VDD.t185 sky130_fd_pr__pfet_01v8 ad=0p pd=0u as=0p ps=0u w=2e+06u l=300000u
X147 VDD.t57 dir.t49 a_n317_62.t1 VDD.t56 sky130_fd_pr__pfet_01v8 ad=0p pd=0u as=0p ps=0u w=2e+06u l=300000u
X148 a_18581_66.t0 A[7].t1 VDD.t1 VDD.t0 sky130_fd_pr__pfet_01v8 ad=0p pd=0u as=0p ps=0u w=2e+06u l=300000u
X149 Y[1].t2 a_3176_62.t10 VDD.t15 VDD.t14 sky130_fd_pr__pfet_01v8 ad=0p pd=0u as=0p ps=0u w=1e+06u l=300000u
X150 VDD.t134 a_22074_66.t10 Y[7].t1 VDD.t133 sky130_fd_pr__pfet_01v8 ad=0p pd=0u as=0p ps=0u w=1e+06u l=300000u
X151 VDD.t55 dir.t50 a_5959_66.t2 VDD.t54 sky130_fd_pr__pfet_01v8 ad=0p pd=0u as=0p ps=0u w=2e+06u l=300000u
X152 a_15449_62.t4 A[6].t6 VDD.t157 VDD.t156 sky130_fd_pr__pfet_01v8 ad=0p pd=0u as=0p ps=0u w=2e+06u l=300000u
X153 a_19166_n1267.t1 A[7].t2 VSS.t31 VSS sky130_fd_pr__nfet_01v8 ad=0p pd=0u as=0p ps=0u w=2e+06u l=300000u
X154 a_21725_66.t3 dir.t51 VDD.t53 VDD.t52 sky130_fd_pr__pfet_01v8 ad=0p pd=0u as=0p ps=0u w=2e+06u l=300000u
X155 a_2268_62.t1 dir.t52 VDD.t51 VDD.t50 sky130_fd_pr__pfet_01v8 ad=0p pd=0u as=0p ps=0u w=1e+06u l=300000u
X156 a_5959_66.t5 a_5400_66.t7 a_6308_66.t1 VDD.t170 sky130_fd_pr__pfet_01v8 ad=0p pd=0u as=0p ps=0u w=2e+06u l=300000u
X157 a_18930_66.t0 dir.t53 a_19166_n1267.t0 VSS sky130_fd_pr__nfet_01v8 ad=0p pd=0u as=0p ps=0u w=2e+06u l=300000u
X158 VDD.t49 dir.t54 a_21166_66.t1 VDD.t48 sky130_fd_pr__pfet_01v8 ad=0p pd=0u as=0p ps=0u w=1e+06u l=300000u
X159 VDD.t47 dir.t55 a_2827_62.t4 VDD.t46 sky130_fd_pr__pfet_01v8 ad=0p pd=0u as=0p ps=0u w=2e+06u l=300000u
X160 a_9452_66.t1 A[2].t6 a_9103_66.t1 VDD.t153 sky130_fd_pr__pfet_01v8 ad=0p pd=0u as=0p ps=0u w=2e+06u l=300000u
X161 VDD.t45 dir.t56 a_15449_62.t0 VDD.t44 sky130_fd_pr__pfet_01v8 ad=0p pd=0u as=0p ps=0u w=2e+06u l=300000u
X162 VDD.t141 a_18930_66.t11 Y[6].t1 VDD.t140 sky130_fd_pr__pfet_01v8 ad=0p pd=0u as=0p ps=0u w=1e+06u l=300000u
X163 a_2827_62.t10 a_2268_62.t7 a_3176_62.t5 VDD.t27 sky130_fd_pr__pfet_01v8 ad=0p pd=0u as=0p ps=0u w=2e+06u l=300000u
X164 a_12654_62.t7 a_11746_62.t7 a_12305_62.t11 VDD.t222 sky130_fd_pr__pfet_01v8 ad=0p pd=0u as=0p ps=0u w=2e+06u l=300000u
X165 a_19402_n1267.t0 a_18022_66.t7 a_18930_66.t7 VSS sky130_fd_pr__nfet_01v8 ad=0p pd=0u as=0p ps=0u w=2e+06u l=300000u
X166 VDD.t232 A[1].t6 a_n317_62.t9 VDD.t231 sky130_fd_pr__pfet_01v8 ad=0p pd=0u as=0p ps=0u w=2e+06u l=300000u
X167 a_32_62.t3 VSS.t38 a_n317_62.t4 VDD.t161 sky130_fd_pr__pfet_01v8 ad=0p pd=0u as=0p ps=0u w=2e+06u l=300000u
X168 a_22074_66.t2 a_21166_66.t6 a_21725_66.t5 VDD.t178 sky130_fd_pr__pfet_01v8 ad=0p pd=0u as=0p ps=0u w=2e+06u l=300000u
X169 a_2827_62.t0 A[2].t7 VDD.t152 VDD.t151 sky130_fd_pr__pfet_01v8 ad=0p pd=0u as=0p ps=0u w=2e+06u l=300000u
X170 VSS.t19 A[5].t6 a_19402_n1267.t1 VSS sky130_fd_pr__nfet_01v8 ad=0p pd=0u as=0p ps=0u w=2e+06u l=300000u
X171 Y[4].t1 a_12654_62.t10 VDD.t147 VDD.t146 sky130_fd_pr__pfet_01v8 ad=0p pd=0u as=0p ps=0u w=1e+06u l=300000u
X172 VSS.t2 dir.t57 a_14890_62.t0 VSS sky130_fd_pr__nfet_01v8 ad=0p pd=0u as=0p ps=0u w=1e+06u l=300000u
X173 VDD.t43 dir.t58 a_n876_62.t1 VDD.t42 sky130_fd_pr__pfet_01v8 ad=0p pd=0u as=0p ps=0u w=1e+06u l=300000u
X174 Y[4].t0 a_12654_62.t11 VSS.t29 VSS sky130_fd_pr__nfet_01v8 ad=0p pd=0u as=0p ps=0u w=1e+06u l=300000u
X175 VDD.t41 dir.t59 a_14890_62.t1 VDD.t40 sky130_fd_pr__pfet_01v8 ad=0p pd=0u as=0p ps=0u w=1e+06u l=300000u
X176 Y[5].t0 a_15798_62.t11 VSS.t33 VSS sky130_fd_pr__nfet_01v8 ad=0p pd=0u as=0p ps=0u w=1e+06u l=300000u
X177 VDD.t39 dir.t60 a_12305_62.t2 VDD.t38 sky130_fd_pr__pfet_01v8 ad=0p pd=0u as=0p ps=0u w=2e+06u l=300000u
X178 a_n317_62.t3 VSS.t39 a_32_62.t2 VDD.t7 sky130_fd_pr__pfet_01v8 ad=0p pd=0u as=0p ps=0u w=2e+06u l=300000u
X179 a_22074_66.t0 dir.t61 a_22310_n1267.t0 VSS sky130_fd_pr__nfet_01v8 ad=0p pd=0u as=0p ps=0u w=2e+06u l=300000u
X180 VDD.t155 A[6].t7 a_15449_62.t3 VDD.t154 sky130_fd_pr__pfet_01v8 ad=0p pd=0u as=0p ps=0u w=2e+06u l=300000u
X181 VSS.t1 A[1].t7 a_6780_n1267.t1 VSS sky130_fd_pr__nfet_01v8 ad=0p pd=0u as=0p ps=0u w=2e+06u l=300000u
X182 a_18930_66.t3 A[5].t7 a_18581_66.t9 VDD.t214 sky130_fd_pr__pfet_01v8 ad=0p pd=0u as=0p ps=0u w=2e+06u l=300000u
X183 Y[7].t0 a_22074_66.t11 VSS.t25 VSS sky130_fd_pr__nfet_01v8 ad=0p pd=0u as=0p ps=0u w=1e+06u l=300000u
X184 a_n317_62.t0 dir.t62 VDD.t37 VDD.t36 sky130_fd_pr__pfet_01v8 ad=0p pd=0u as=0p ps=0u w=2e+06u l=300000u
X185 a_9103_66.t8 A[4].t6 VDD.t165 VDD.t164 sky130_fd_pr__pfet_01v8 ad=0p pd=0u as=0p ps=0u w=2e+06u l=300000u
X186 a_22546_n1267.t0 a_21166_66.t7 a_22074_66.t1 VSS sky130_fd_pr__nfet_01v8 ad=0p pd=0u as=0p ps=0u w=2e+06u l=300000u
X187 a_15798_62.t1 A[4].t7 a_15449_62.t9 VDD.t180 sky130_fd_pr__pfet_01v8 ad=0p pd=0u as=0p ps=0u w=2e+06u l=300000u
X188 VDD.t163 a_3176_62.t11 Y[1].t1 VDD.t162 sky130_fd_pr__pfet_01v8 ad=0p pd=0u as=0p ps=0u w=1e+06u l=300000u
X189 a_2827_62.t3 dir.t63 VDD.t35 VDD.t34 sky130_fd_pr__pfet_01v8 ad=0p pd=0u as=0p ps=0u w=2e+06u l=300000u
X190 a_5959_66.t11 A[3].t7 VDD.t234 VDD.t233 sky130_fd_pr__pfet_01v8 ad=0p pd=0u as=0p ps=0u w=2e+06u l=300000u
X191 a_18581_66.t8 A[7].t3 VDD.t225 VDD.t224 sky130_fd_pr__pfet_01v8 ad=0p pd=0u as=0p ps=0u w=2e+06u l=300000u
R0 dir.n1 dir.t37 1374.12
R1 dir.n43 dir.t35 1374.12
R2 dir.n39 dir.t24 1374.12
R3 dir.n35 dir.t27 1374.12
R4 dir.n31 dir.t26 1374.12
R5 dir.n27 dir.t57 1374.12
R6 dir.n23 dir.t7 1374.12
R7 dir.n19 dir.t6 1374.12
R8 dir.n3 dir.t62 623.291
R9 dir.n5 dir.t63 623.291
R10 dir.n7 dir.t38 623.291
R11 dir.n9 dir.t36 623.291
R12 dir.n11 dir.t9 623.291
R13 dir.n13 dir.t28 623.291
R14 dir.n15 dir.t48 623.291
R15 dir.n17 dir.t51 623.291
R16 dir.n3 dir.t10 610.283
R17 dir.n5 dir.t25 610.283
R18 dir.n7 dir.t40 610.283
R19 dir.n9 dir.t20 610.283
R20 dir.n11 dir.t19 610.283
R21 dir.n13 dir.t39 610.283
R22 dir.n15 dir.t53 610.283
R23 dir.n17 dir.t61 610.283
R24 dir.n1 dir.t42 326.034
R25 dir.n43 dir.t43 326.034
R26 dir.n39 dir.t16 326.034
R27 dir.n35 dir.t14 326.034
R28 dir.n31 dir.t29 326.034
R29 dir.n27 dir.t59 326.034
R30 dir.n23 dir.t21 326.034
R31 dir.n19 dir.t31 326.034
R32 dir.n2 dir.t49 286.438
R33 dir.n2 dir.t11 286.438
R34 dir.n4 dir.t55 286.438
R35 dir.n4 dir.t13 286.438
R36 dir.n6 dir.t3 286.438
R37 dir.n6 dir.t50 286.438
R38 dir.n8 dir.t23 286.438
R39 dir.n8 dir.t5 286.438
R40 dir.n10 dir.t60 286.438
R41 dir.n10 dir.t15 286.438
R42 dir.n12 dir.t56 286.438
R43 dir.n12 dir.t41 286.438
R44 dir.n14 dir.t33 286.438
R45 dir.n14 dir.t17 286.438
R46 dir.n16 dir.t47 286.438
R47 dir.n16 dir.t0 286.438
R48 dir.n0 dir.t58 206.421
R49 dir.t42 dir.n0 206.421
R50 dir.n42 dir.t1 206.421
R51 dir.t43 dir.n42 206.421
R52 dir.n38 dir.t45 206.421
R53 dir.t16 dir.n38 206.421
R54 dir.n34 dir.t4 206.421
R55 dir.t14 dir.n34 206.421
R56 dir.n30 dir.t8 206.421
R57 dir.t29 dir.n30 206.421
R58 dir.n26 dir.t32 206.421
R59 dir.t59 dir.n26 206.421
R60 dir.n22 dir.t12 206.421
R61 dir.t21 dir.n22 206.421
R62 dir.n18 dir.t54 206.421
R63 dir.t31 dir.n18 206.421
R64 dir.t62 dir.n2 160.666
R65 dir.t63 dir.n4 160.666
R66 dir.t38 dir.n6 160.666
R67 dir.t36 dir.n8 160.666
R68 dir.t9 dir.n10 160.666
R69 dir.t28 dir.n12 160.666
R70 dir.t48 dir.n14 160.666
R71 dir.t51 dir.n16 160.666
R72 dir.n0 dir.t34 80.333
R73 dir.n42 dir.t52 80.333
R74 dir.n38 dir.t30 80.333
R75 dir.n34 dir.t22 80.333
R76 dir.n30 dir.t44 80.333
R77 dir.n26 dir.t18 80.333
R78 dir.n22 dir.t2 80.333
R79 dir.n18 dir.t46 80.333
R80 dir.n33 dir.n32 3.278
R81 dir.n21 dir.n20 3.06
R82 dir.n37 dir.n36 3.06
R83 dir.n45 dir.n44 3.058
R84 dir.n29 dir.n28 3.029
R85 dir.n41 dir.n40 2.923
R86 dir.n25 dir.n24 2.918
R87 dir.n20 dir.n17 1.617
R88 dir.n24 dir.n21 1.616
R89 dir.n36 dir.n33 1.616
R90 dir.n40 dir.n37 1.616
R91 dir.n46 dir.n45 1.616
R92 dir.n32 dir.n29 1.615
R93 dir.n28 dir.n25 1.612
R94 dir.n44 dir.n41 1.61
R95 dir dir.n46 0.748
R96 dir.n46 dir.n1 0.003
R97 dir.n44 dir.n43 0.003
R98 dir.n40 dir.n39 0.003
R99 dir.n36 dir.n35 0.003
R100 dir.n32 dir.n31 0.003
R101 dir.n28 dir.n27 0.003
R102 dir.n24 dir.n23 0.003
R103 dir.n20 dir.n19 0.003
R104 dir.n41 dir.n5 0.001
R105 dir.n25 dir.n13 0.001
R106 dir.n45 dir.n3 0.001
R107 dir.n37 dir.n7 0.001
R108 dir.n33 dir.n9 0.001
R109 dir.n29 dir.n11 0.001
R110 dir.n21 dir.n15 0.001
R111 a_21725_66.n4 a_21725_66.n3 167.433
R112 a_21725_66.n9 a_21725_66.n8 167.433
R113 a_21725_66.n4 a_21725_66.t4 104.259
R114 a_21725_66.t0 a_21725_66.n9 104.259
R115 a_21725_66.n5 a_21725_66.n2 89.977
R116 a_21725_66.n6 a_21725_66.n1 89.977
R117 a_21725_66.n7 a_21725_66.n0 89.977
R118 a_21725_66.n5 a_21725_66.n4 77.784
R119 a_21725_66.n6 a_21725_66.n5 77.456
R120 a_21725_66.n7 a_21725_66.n6 77.456
R121 a_21725_66.n9 a_21725_66.n7 75.815
R122 a_21725_66.n3 a_21725_66.t7 14.282
R123 a_21725_66.n3 a_21725_66.t8 14.282
R124 a_21725_66.n2 a_21725_66.t2 14.282
R125 a_21725_66.n2 a_21725_66.t3 14.282
R126 a_21725_66.n1 a_21725_66.t1 14.282
R127 a_21725_66.n1 a_21725_66.t6 14.282
R128 a_21725_66.n0 a_21725_66.t5 14.282
R129 a_21725_66.n0 a_21725_66.t10 14.282
R130 a_21725_66.n8 a_21725_66.t11 14.282
R131 a_21725_66.n8 a_21725_66.t9 14.282
R132 VDD.t202 VDD.t14 95474.9
R133 VDD.t211 VDD.t146 95474.9
R134 VDD.t221 VDD.t144 95474.9
R135 VDD.t214 VDD.t238 95474.9
R136 VDD.t196 VDD.t135 95474.9
R137 VDD.t33 VDD.t168 95474.9
R138 VDD.t9 VDD.t142 95474.9
R139 VDD.t184 VDD.t20 95474.9
R140 VDD.t166 VDD.t126 382.217
R141 VDD.t12 VDD.t116 382.217
R142 VDD.t156 VDD.t82 382.217
R143 VDD.t224 VDD.t112 382.217
R144 VDD.t203 VDD.t48 382.217
R145 VDD.t233 VDD.t64 382.217
R146 VDD.t138 VDD.t120 382.217
R147 VDD.t188 VDD.t42 382.217
R148 VDD.t126 VDD.t50 345.987
R149 VDD.t50 VDD.t68 345.987
R150 VDD.t162 VDD.t31 345.987
R151 VDD.t14 VDD.t162 345.987
R152 VDD.t116 VDD.t66 345.987
R153 VDD.t66 VDD.t92 345.987
R154 VDD.t159 VDD.t205 345.987
R155 VDD.t146 VDD.t159 345.987
R156 VDD.t82 VDD.t100 345.987
R157 VDD.t100 VDD.t40 345.987
R158 VDD.t24 VDD.t148 345.987
R159 VDD.t144 VDD.t24 345.987
R160 VDD.t112 VDD.t124 345.987
R161 VDD.t124 VDD.t98 345.987
R162 VDD.t140 VDD.t2 345.987
R163 VDD.t238 VDD.t140 345.987
R164 VDD.t48 VDD.t62 345.987
R165 VDD.t62 VDD.t88 345.987
R166 VDD.t133 VDD.t131 345.987
R167 VDD.t135 VDD.t133 345.987
R168 VDD.t64 VDD.t90 345.987
R169 VDD.t90 VDD.t102 345.987
R170 VDD.t217 VDD.t215 345.987
R171 VDD.t168 VDD.t217 345.987
R172 VDD.t120 VDD.t86 345.987
R173 VDD.t86 VDD.t106 345.987
R174 VDD.t176 VDD.t186 345.987
R175 VDD.t142 VDD.t176 345.987
R176 VDD.t42 VDD.t78 345.987
R177 VDD.t78 VDD.t70 345.987
R178 VDD.t29 VDD.t18 345.987
R179 VDD.t20 VDD.t29 345.987
R180 VDD.t110 VDD.t183 276.597
R181 VDD.t104 VDD.t228 276.597
R182 VDD.t72 VDD.t180 276.597
R183 VDD.t84 VDD.t172 276.597
R184 VDD.t128 VDD.t158 276.597
R185 VDD.t54 VDD.t28 276.597
R186 VDD.t118 VDD.t153 276.597
R187 VDD.t114 VDD.t161 276.597
R188 VDD.t27 VDD.t151 269.594
R189 VDD.t193 VDD.t10 269.594
R190 VDD.t174 VDD.t198 269.594
R191 VDD.t185 VDD.t0 269.594
R192 VDD.t207 VDD.t22 269.594
R193 VDD.t208 VDD.t229 269.594
R194 VDD.t173 VDD.t164 269.594
R195 VDD.t219 VDD.t16 269.594
R196 VDD.n108 VDD.n105 258.915
R197 VDD.n69 VDD.n67 258.915
R198 VDD.n49 VDD.n47 258.915
R199 VDD.n29 VDD.n27 258.915
R200 VDD.n10 VDD.n8 258.915
R201 VDD.n128 VDD.n125 258.915
R202 VDD.n148 VDD.n145 258.915
R203 VDD.n89 VDD.n86 258.915
R204 VDD.n111 VDD.n110 258.161
R205 VDD.n72 VDD.n71 258.161
R206 VDD.n52 VDD.n51 258.161
R207 VDD.n32 VDD.n31 258.161
R208 VDD.n13 VDD.n12 258.161
R209 VDD.n131 VDD.n130 258.161
R210 VDD.n151 VDD.n150 258.161
R211 VDD.n92 VDD.n91 258.161
R212 VDD.n113 VDD.n112 184.375
R213 VDD.n74 VDD.n73 184.375
R214 VDD.n54 VDD.n53 184.375
R215 VDD.n34 VDD.n33 184.375
R216 VDD.n15 VDD.n14 184.375
R217 VDD.n133 VDD.n132 184.375
R218 VDD.n153 VDD.n152 184.375
R219 VDD.n94 VDD.n93 184.375
R220 VDD.n104 VDD.n103 182.117
R221 VDD.n66 VDD.n64 182.117
R222 VDD.n46 VDD.n44 182.117
R223 VDD.n26 VDD.n24 182.117
R224 VDD.n7 VDD.n5 182.117
R225 VDD.n124 VDD.n123 182.117
R226 VDD.n144 VDD.n143 182.117
R227 VDD.n85 VDD.n84 182.117
R228 VDD.t194 VDD.t202 137.714
R229 VDD.t183 VDD.t194 137.714
R230 VDD.t34 VDD.t110 137.714
R231 VDD.t26 VDD.t27 137.714
R232 VDD.t151 VDD.t181 137.714
R233 VDD.t181 VDD.t166 137.714
R234 VDD.t235 VDD.t211 137.714
R235 VDD.t228 VDD.t235 137.714
R236 VDD.t108 VDD.t104 137.714
R237 VDD.t222 VDD.t193 137.714
R238 VDD.t10 VDD.t190 137.714
R239 VDD.t190 VDD.t12 137.714
R240 VDD.t223 VDD.t221 137.714
R241 VDD.t180 VDD.t223 137.714
R242 VDD.t94 VDD.t72 137.714
R243 VDD.t220 VDD.t174 137.714
R244 VDD.t198 VDD.t154 137.714
R245 VDD.t154 VDD.t156 137.714
R246 VDD.t195 VDD.t214 137.714
R247 VDD.t172 VDD.t195 137.714
R248 VDD.t58 VDD.t84 137.714
R249 VDD.t150 VDD.t185 137.714
R250 VDD.t0 VDD.t4 137.714
R251 VDD.t4 VDD.t224 137.714
R252 VDD.t197 VDD.t196 137.714
R253 VDD.t158 VDD.t197 137.714
R254 VDD.t52 VDD.t128 137.714
R255 VDD.t178 VDD.t207 137.714
R256 VDD.t22 VDD.t236 137.714
R257 VDD.t236 VDD.t203 137.714
R258 VDD.t213 VDD.t33 137.714
R259 VDD.t28 VDD.t213 137.714
R260 VDD.t74 VDD.t54 137.714
R261 VDD.t171 VDD.t208 137.714
R262 VDD.t229 VDD.t226 137.714
R263 VDD.t226 VDD.t233 137.714
R264 VDD.t175 VDD.t9 137.714
R265 VDD.t153 VDD.t175 137.714
R266 VDD.t76 VDD.t118 137.714
R267 VDD.t6 VDD.t173 137.714
R268 VDD.t164 VDD.t200 137.714
R269 VDD.t200 VDD.t138 137.714
R270 VDD.t7 VDD.t184 137.714
R271 VDD.t161 VDD.t7 137.714
R272 VDD.t36 VDD.t114 137.714
R273 VDD.t210 VDD.t219 137.714
R274 VDD.t16 VDD.t231 137.714
R275 VDD.t231 VDD.t188 137.714
R276 VDD.n80 VDD.t210 136.641
R277 VDD.n98 VDD.t26 136.641
R278 VDD.n59 VDD.t222 136.641
R279 VDD.n39 VDD.t220 136.641
R280 VDD.n19 VDD.t150 136.641
R281 VDD.n0 VDD.t178 136.641