* NGSPICE file created from control_unit_pex.ext - technology: sky130B

.subckt control_unit B[0],B[1],B[2],B[3],B[4],B[5],B[6],B[7] A[0],A[1],A[2],A[3],A[4],A[5],A[6],A[7] Y[0],Y[1],Y[2],Y[3],Y[4],Y[5],Y[6],Y[7] VDD VSS opcode[0],opcode[1],opcode[2],opcode[3] Cout
X0 VDD.t3602 a_48690_23619.t4 a_49686_24206.t5 w_49532_24144# sky130_fd_pr__pfet_01v8 ad=0p pd=0u as=0p ps=0u w=2e+06u l=300000u
X1 VDD.t1053 a_3642_11724.t4 a_3951_1740.t5 VDD.t1052 sky130_fd_pr__pfet_01v8 ad=0p pd=0u as=0p ps=0u w=2e+06u l=300000u
X2 a_39263_15765.t3 a_38721_16161.t4 VDD.t3539 w_38687_16396# sky130_fd_pr__pfet_01v8 ad=0p pd=0u as=0p ps=0u w=2e+06u l=300000u
X3 VDD.t1090 a_13130_8992.t4 a_13711_11724.t5 VDD.t1089 sky130_fd_pr__pfet_01v8 ad=0p pd=0u as=0p ps=0u w=2e+06u l=300000u
X4 VDD.t1325 A[3].t0 a_19763_16387.t2 VDD.t1324 sky130_fd_pr__pfet_01v8 ad=0p pd=0u as=0p ps=0u w=1e+06u l=300000u
X5 a_59280_15743.t3 a_59223_16436.t8 VSS.t319 VSS sky130_fd_pr__nfet_01v8 ad=0p pd=0u as=0p ps=0u w=1e+06u l=300000u
X6 VSS.t645 a_42301_n1318.t4 a_44682_3363.t1 VSS sky130_fd_pr__nfet_01v8 ad=0p pd=0u as=0p ps=0u w=2e+06u l=300000u
X7 VDD.t1273 a_63527_6198.t7 a_64117_5761.t2 VDD.t1272 sky130_fd_pr__pfet_01v8 ad=0p pd=0u as=0p ps=0u w=1e+06u l=300000u
X8 VSS.t300 a_70513_4160.t8 a_7957_1259.t3 VSS sky130_fd_pr__nfet_01v8 ad=0p pd=0u as=0p ps=0u w=1e+06u l=300000u
X9 a_46175_15029.t0 a_45279_16157.t4 VSS.t526 VSS sky130_fd_pr__nfet_01v8 ad=0p pd=0u as=0p ps=0u w=2e+06u l=300000u
X10 a_52710_16433.t2 a_54665_15740.t4 a_54253_15766.t3 w_51779_16397# sky130_fd_pr__pfet_01v8 ad=0p pd=0u as=0p ps=0u w=2e+06u l=300000u
X11 a_54914_n1762.t2 B[6].t0 VDD.t1378 VDD.t1377 sky130_fd_pr__pfet_01v8 ad=0p pd=0u as=0p ps=0u w=1e+06u l=300000u
X12 VDD.t231 a_44405_8194.t4 a_48548_6884.t2 VDD.t230 sky130_fd_pr__pfet_01v8 ad=0p pd=0u as=0p ps=0u w=1e+06u l=300000u
X13 VDD.t4607 VSS.t714 a_3591_21596.t5 VDD.t4606 sky130_fd_pr__pfet_01v8 ad=0p pd=0u as=0p ps=0u w=2e+06u l=300000u
X14 VDD.t3008 A[6].t0 a_9867_21592.t2 VDD.t3007 sky130_fd_pr__pfet_01v8 ad=0p pd=0u as=0p ps=0u w=2e+06u l=300000u
X15 VSS.t42 a_48124_21370.t8 a_49477_22063.t3 VSS sky130_fd_pr__nfet_01v8 ad=0p pd=0u as=0p ps=0u w=1e+06u l=300000u
X16 a_52999_20434.t1 A[2].t0 a_52762_21071.t6 VSS sky130_fd_pr__nfet_01v8 ad=0p pd=0u as=0p ps=0u w=2e+06u l=300000u
X17 a_31377_10037.t1 a_30152_10818.t4 a_30645_10037.t4 VSS sky130_fd_pr__nfet_01v8 ad=0p pd=0u as=0p ps=0u w=2e+06u l=300000u
X18 VDD.t262 A[4].t0 a_5331_6357.t2 VDD.t261 sky130_fd_pr__pfet_01v8 ad=0p pd=0u as=0p ps=0u w=1e+06u l=300000u
X19 VDD.t2973 a_53343_23888.t4 a_55078_24197.t2 w_54924_24135# sky130_fd_pr__pfet_01v8 ad=0p pd=0u as=0p ps=0u w=2e+06u l=300000u
X20 a_56502_14835.t1 a_51813_16162.t4 VSS.t480 VSS sky130_fd_pr__nfet_01v8 ad=0p pd=0u as=0p ps=0u w=2e+06u l=300000u
X21 VDD.t3232 a_61518_24201.t5 a_61782_23618.t2 w_61482_24139# sky130_fd_pr__pfet_01v8 ad=0p pd=0u as=0p ps=0u w=1e+06u l=300000u
X22 VDD.t3740 A[7].t0 a_42770_18699.t3 w_42676_18663# sky130_fd_pr__pfet_01v8 ad=0p pd=0u as=0p ps=0u w=1e+06u l=300000u
X23 VDD.t263 A[4].t1 a_62375_18703.t5 w_62281_18667# sky130_fd_pr__pfet_01v8 ad=0p pd=0u as=0p ps=0u w=1e+06u l=300000u
X24 a_44405_8194.t0 a_47794_3876.t5 VDD.t2884 VDD.t2883 sky130_fd_pr__pfet_01v8 ad=0p pd=0u as=0p ps=0u w=1e+06u l=300000u
X25 VDD.t884 a_59635_6910.t8 a_61415_6910.t2 VDD.t883 sky130_fd_pr__pfet_01v8 ad=0p pd=0u as=0p ps=0u w=2e+06u l=300000u
X26 VDD.t233 a_44405_8194.t5 a_44460_6616.t6 VDD.t232 sky130_fd_pr__pfet_01v8 ad=0p pd=0u as=0p ps=0u w=1e+06u l=300000u
X27 VDD.t2740 a_53816_17942.t5 a_52749_18576.t2 w_53722_17953# sky130_fd_pr__pfet_01v8 ad=0p pd=0u as=0p ps=0u w=1e+06u l=300000u
X28 a_31379_12341.t0 B[0].t0 VSS.t352 VSS sky130_fd_pr__nfet_01v8 ad=0p pd=0u as=0p ps=0u w=2e+06u l=300000u
X29 a_4332_n2152.t4 a_4857_n2637.t4 a_3983_n2152.t6 VDD.t2737 sky130_fd_pr__pfet_01v8 ad=0p pd=0u as=0p ps=0u w=2e+06u l=300000u
X30 a_47794_3876.t2 a_45049_1913.t4 VSS.t667 VSS sky130_fd_pr__nfet_01v8 ad=0p pd=0u as=0p ps=0u w=1e+06u l=300000u
X31 a_556_13728.t3 a_1735_13585.t4 a_1680_13125.t1 VSS sky130_fd_pr__nfet_01v8 ad=0p pd=0u as=0p ps=0u w=2e+06u l=300000u
X32 VDD.t2914 opcode[2].t0 a_3392_1740.t2 VDD.t2913 sky130_fd_pr__pfet_01v8 ad=0p pd=0u as=0p ps=0u w=1e+06u l=300000u
X33 a_4243_8992.t6 a_4183_8966.t8 a_3710_8262.t2 VDD.t4514 sky130_fd_pr__pfet_01v8 ad=0p pd=0u as=0p ps=0u w=2e+06u l=300000u
X34 VDD.t2890 a_70513_7304.t8 a_11101_1259.t2 VDD.t2889 sky130_fd_pr__pfet_01v8 ad=0p pd=0u as=0p ps=0u w=1e+06u l=300000u
X35 a_566_8262.t6 a_1745_8119.t4 a_1099_8992.t8 VDD.t1774 sky130_fd_pr__pfet_01v8 ad=0p pd=0u as=0p ps=0u w=2e+06u l=300000u
X36 a_55469_11532.t2 a_54879_11969.t7 VDD.t2098 VDD.t2097 sky130_fd_pr__pfet_01v8 ad=0p pd=0u as=0p ps=0u w=1e+06u l=300000u
X37 a_23777_10847.t3 opcode[1].t0 VSS.t136 VSS sky130_fd_pr__nfet_01v8 ad=0p pd=0u as=0p ps=0u w=1e+06u l=300000u
X38 a_37916_8132.t6 a_35594_7027.t4 VDD.t3701 VDD.t3700 sky130_fd_pr__pfet_01v8 ad=0p pd=0u as=0p ps=0u w=1e+06u l=300000u
X39 a_48130_1040.t11 a_48542_1014.t4 a_48248_1040.t7 VDD.t2575 sky130_fd_pr__pfet_01v8 ad=0p pd=0u as=0p ps=0u w=2e+06u l=300000u
X40 a_67135_3808.t4 a_54908_6842.t8 VDD.t4567 VDD.t4566 sky130_fd_pr__pfet_01v8 ad=0p pd=0u as=0p ps=0u w=1e+06u l=300000u
X41 VDD.t254 a_30645_10037.t8 a_48006_21370.t10 w_47542_22001# sky130_fd_pr__pfet_01v8 ad=0p pd=0u as=0p ps=0u w=2e+06u l=300000u
X42 VSS.t279 a_1974_8339.t4 a_1926_7659.t0 VSS sky130_fd_pr__nfet_01v8 ad=0p pd=0u as=0p ps=0u w=2e+06u l=300000u
X43 a_41948_n1318.t0 B[5].t0 a_41711_n1755.t0 VSS sky130_fd_pr__nfet_01v8 ad=0p pd=0u as=0p ps=0u w=2e+06u l=300000u
X44 VDD.t1489 a_30647_12105.t8 a_39706_24333.t6 w_39552_24271# sky130_fd_pr__pfet_01v8 ad=0p pd=0u as=0p ps=0u w=1e+06u l=300000u
X45 VDD.t1761 a_70513_19926.t8 a_23723_1259.t2 VDD.t1760 sky130_fd_pr__pfet_01v8 ad=0p pd=0u as=0p ps=0u w=1e+06u l=300000u
X46 VDD.t992 a_49832_23623.t4 a_52762_21071.t0 w_52608_21009# sky130_fd_pr__pfet_01v8 ad=0p pd=0u as=0p ps=0u w=1e+06u l=300000u
X47 a_48124_21370.t7 a_47579_22063.t4 a_48124_20638.t1 VSS sky130_fd_pr__nfet_01v8 ad=0p pd=0u as=0p ps=0u w=2e+06u l=300000u
X48 VDD.t3684 a_16274_8992.t4 a_16855_11724.t11 VDD.t3683 sky130_fd_pr__pfet_01v8 ad=0p pd=0u as=0p ps=0u w=2e+06u l=300000u
X49 a_1916_10391.t1 opcode[1].t1 a_556_10994.t6 VSS sky130_fd_pr__nfet_01v8 ad=0p pd=0u as=0p ps=0u w=2e+06u l=300000u
X50 a_17456_7659.t0 a_16805_8966.t8 VSS.t209 VSS sky130_fd_pr__nfet_01v8 ad=0p pd=0u as=0p ps=0u w=2e+06u l=300000u
X51 VDD.t1007 a_7464_n2148.t8 Y[5].t2 VDD.t1006 sky130_fd_pr__pfet_01v8 ad=0p pd=0u as=0p ps=0u w=1e+06u l=300000u
X52 a_16865_8992.t10 a_17511_8119.t4 a_16332_8262.t5 VDD.t1798 sky130_fd_pr__pfet_01v8 ad=0p pd=0u as=0p ps=0u w=2e+06u l=300000u
X53 a_29950_n2431.t11 a_30150_n1593.t4 a_30643_n2374.t4 VDD.t1750 sky130_fd_pr__pfet_01v8 ad=0p pd=0u as=0p ps=0u w=2e+06u l=300000u
X54 a_54785_1041.t11 a_53005_1041.t8 VDD.t1502 VDD.t1501 sky130_fd_pr__pfet_01v8 ad=0p pd=0u as=0p ps=0u w=2e+06u l=300000u
X55 a_20643_8115.t2 opcode[0].t0 VDD.t3690 VDD.t3689 sky130_fd_pr__pfet_01v8 ad=0p pd=0u as=0p ps=0u w=1e+06u l=300000u
X56 VDD.t1545 B[7].t0 a_13849_16387.t2 VDD.t1544 sky130_fd_pr__pfet_01v8 ad=0p pd=0u as=0p ps=0u w=1e+06u l=300000u
X57 VDD.t1323 A[3].t1 a_63532_11802.t2 VDD.t1322 sky130_fd_pr__pfet_01v8 ad=0p pd=0u as=0p ps=0u w=1e+06u l=300000u
X58 a_53430_9674.t5 a_51695_9365.t4 VDD.t580 VDD.t579 sky130_fd_pr__pfet_01v8 ad=0p pd=0u as=0p ps=0u w=2e+06u l=300000u
X59 VDD.t585 a_498_11724.t4 a_807_1740.t11 VDD.t584 sky130_fd_pr__pfet_01v8 ad=0p pd=0u as=0p ps=0u w=2e+06u l=300000u
X60 a_10519_8988.t2 opcode[0].t1 VDD.t4012 VDD.t4011 sky130_fd_pr__pfet_01v8 ad=0p pd=0u as=0p ps=0u w=2e+06u l=300000u
X61 a_58329_6179.t2 a_57739_6616.t7 VDD.t66 VDD.t65 sky130_fd_pr__pfet_01v8 ad=0p pd=0u as=0p ps=0u w=1e+06u l=300000u
X62 a_45811_7603.t2 a_41507_3295.t4 VDD.t72 VDD.t71 sky130_fd_pr__pfet_01v8 ad=0p pd=0u as=0p ps=0u w=1e+06u l=300000u
X63 a_13661_8966.t4 a_18447_5326.t4 a_18035_5352.t3 VDD.t1623 sky130_fd_pr__pfet_01v8 ad=0p pd=0u as=0p ps=0u w=2e+06u l=300000u
X64 a_7381_20723.t2 opcode[0].t2 VDD.t4535 VDD.t4534 sky130_fd_pr__pfet_01v8 ad=0p pd=0u as=0p ps=0u w=1e+06u l=300000u
X65 VDD.t1490 a_30647_12105.t9 a_41066_22066.t2 w_41029_22004# sky130_fd_pr__pfet_01v8 ad=0p pd=0u as=0p ps=0u w=1e+06u l=300000u
X66 a_6842_8258.t6 a_7315_8962.t8 a_7375_8988.t8 VDD.t3288 sky130_fd_pr__pfet_01v8 ad=0p pd=0u as=0p ps=0u w=2e+06u l=300000u
X67 a_44445_4000.t6 a_41697_1042.t8 VDD.t1666 VDD.t1665 sky130_fd_pr__pfet_01v8 ad=0p pd=0u as=0p ps=0u w=1e+06u l=300000u
X68 a_70513_20044.t11 a_64122_11365.t4 VDD.t2846 VDD.t2845 sky130_fd_pr__pfet_01v8 ad=0p pd=0u as=0p ps=0u w=2e+06u l=300000u
X69 a_839_n2152.t8 a_1713_n2637.t4 a_1188_n2152.t5 VDD.t2357 sky130_fd_pr__pfet_01v8 ad=0p pd=0u as=0p ps=0u w=2e+06u l=300000u
X70 VDD.t84 a_51054_2325.t4 a_51109_747.t5 VDD.t83 sky130_fd_pr__pfet_01v8 ad=0p pd=0u as=0p ps=0u w=1e+06u l=300000u
X71 a_56850_21339.t2 a_49832_23623.t5 VDD.t993 w_54076_21996# sky130_fd_pr__pfet_01v8 ad=0p pd=0u as=0p ps=0u w=1e+06u l=300000u
X72 a_35602_9612.t2 a_35012_10049.t7 VDD.t4352 VDD.t4351 sky130_fd_pr__pfet_01v8 ad=0p pd=0u as=0p ps=0u w=1e+06u l=300000u
X73 VDD.t4137 B[1].t0 a_11640_16408.t2 VDD.t4136 sky130_fd_pr__pfet_01v8 ad=0p pd=0u as=0p ps=0u w=2e+06u l=300000u
X74 VDD.t4504 a_46176_16428.t8 a_46233_15735.t2 w_45245_16392# sky130_fd_pr__pfet_01v8 ad=0p pd=0u as=0p ps=0u w=1e+06u l=300000u
X75 a_60193_3291.t3 a_59929_3874.t5 VSS.t334 VSS sky130_fd_pr__nfet_01v8 ad=0p pd=0u as=0p ps=0u w=1e+06u l=300000u
X76 VDD.t1573 a_62660_24205.t5 a_58326_16165.t2 w_62624_24143# sky130_fd_pr__pfet_01v8 ad=0p pd=0u as=0p ps=0u w=1e+06u l=300000u
X77 a_1424_n3485.t0 a_779_n2178.t4 VSS.t437 VSS sky130_fd_pr__nfet_01v8 ad=0p pd=0u as=0p ps=0u w=2e+06u l=300000u
X78 a_45821_15761.t11 a_46233_15735.t4 a_45939_15761.t6 w_45245_16392# sky130_fd_pr__pfet_01v8 ad=0p pd=0u as=0p ps=0u w=2e+06u l=300000u
X79 VSS.t155 a_6832_13724.t8 a_6774_14454.t3 VSS sky130_fd_pr__nfet_01v8 ad=0p pd=0u as=0p ps=0u w=1e+06u l=300000u
X80 a_15966_5352.t2 B[4].t0 VDD.t921 VDD.t920 sky130_fd_pr__pfet_01v8 ad=0p pd=0u as=0p ps=0u w=2e+06u l=300000u
X81 VDD.t792 opcode[1].t2 a_70513_4278.t11 VDD.t791 sky130_fd_pr__pfet_01v8 ad=0p pd=0u as=0p ps=0u w=2e+06u l=300000u
X82 VDD.t895 A[0].t0 a_39706_24333.t0 w_39552_24271# sky130_fd_pr__pfet_01v8 ad=0p pd=0u as=0p ps=0u w=1e+06u l=300000u
X83 VDD.t2902 a_37916_8132.t7 a_38506_7695.t2 VDD.t2901 sky130_fd_pr__pfet_01v8 ad=0p pd=0u as=0p ps=0u w=1e+06u l=300000u
X84 VDD.t754 a_30645_5900.t8 a_59311_24329.t2 w_59157_24267# sky130_fd_pr__pfet_01v8 ad=0p pd=0u as=0p ps=0u w=1e+06u l=300000u
X85 a_52473_15766.t4 a_51815_16459.t4 a_52355_15766.t5 w_51779_16397# sky130_fd_pr__pfet_01v8 ad=0p pd=0u as=0p ps=0u w=2e+06u l=300000u
X86 a_43173_24209.t5 a_42177_23622.t4 VDD.t2799 w_43019_24147# sky130_fd_pr__pfet_01v8 ad=0p pd=0u as=0p ps=0u w=2e+06u l=300000u
X87 a_54540_21365.t5 a_54113_22058.t4 a_54658_21365.t4 w_54076_21996# sky130_fd_pr__pfet_01v8 ad=0p pd=0u as=0p ps=0u w=2e+06u l=300000u
X88 VSS.t543 a_6827_15753.t5 a_6887_15819.t3 VSS sky130_fd_pr__nfet_01v8 ad=0p pd=0u as=0p ps=0u w=1e+06u l=300000u
X89 VDD.t3538 a_38721_16161.t5 a_39263_15765.t2 w_38687_16396# sky130_fd_pr__pfet_01v8 ad=0p pd=0u as=0p ps=0u w=2e+06u l=300000u
X90 a_8021_8115.t3 opcode[0].t3 VSS.t469 VSS sky130_fd_pr__nfet_01v8 ad=0p pd=0u as=0p ps=0u w=1e+06u l=300000u
X91 a_7083_1744.t2 a_6774_11720.t4 VDD.t2058 VDD.t2057 sky130_fd_pr__pfet_01v8 ad=0p pd=0u as=0p ps=0u w=2e+06u l=300000u
X92 a_70513_4278.t0 a_52473_15766.t8 a_70513_4160.t0 VDD.t662 sky130_fd_pr__pfet_01v8 ad=0p pd=0u as=0p ps=0u w=2e+06u l=300000u
X93 a_55202_6816.t2 a_51059_8126.t4 VDD.t4285 VDD.t4284 sky130_fd_pr__pfet_01v8 ad=0p pd=0u as=0p ps=0u w=1e+06u l=300000u
X94 a_11565_15824.t2 a_11505_15751.t5 VDD.t640 VDD.t639 sky130_fd_pr__pfet_01v8 ad=0p pd=0u as=0p ps=0u w=1e+06u l=300000u
X95 VDD.t4335 a_35602_9612.t4 a_40101_6796.t2 VDD.t4334 sky130_fd_pr__pfet_01v8 ad=0p pd=0u as=0p ps=0u w=1e+06u l=300000u
X96 a_70455_n1231.t3 opcode[1].t3 VSS.t137 VSS sky130_fd_pr__nfet_01v8 ad=0p pd=0u as=0p ps=0u w=1e+06u l=300000u
X97 a_45939_15761.t3 a_46176_16428.t9 a_46175_15029.t1 VSS sky130_fd_pr__nfet_01v8 ad=0p pd=0u as=0p ps=0u w=2e+06u l=300000u
X98 a_70455_1913.t3 opcode[1].t4 VSS.t138 VSS sky130_fd_pr__nfet_01v8 ad=0p pd=0u as=0p ps=0u w=1e+06u l=300000u
X99 VDD.t86 a_51054_2325.t5 a_54785_1041.t1 VDD.t85 sky130_fd_pr__pfet_01v8 ad=0p pd=0u as=0p ps=0u w=2e+06u l=300000u
X100 a_51114_6548.t6 a_48815_11511.t4 VDD.t2261 VDD.t2260 sky130_fd_pr__pfet_01v8 ad=0p pd=0u as=0p ps=0u w=1e+06u l=300000u
X101 a_3591_21596.t4 VSS.t715 VDD.t4605 VDD.t4604 sky130_fd_pr__pfet_01v8 ad=0p pd=0u as=0p ps=0u w=2e+06u l=300000u
X102 a_63598_4278.t6 A[3].t2 VDD.t1321 VDD.t1320 sky130_fd_pr__pfet_01v8 ad=0p pd=0u as=0p ps=0u w=1e+06u l=300000u
X103 a_61769_6178.t0 a_59635_6910.t9 a_61533_6910.t0 VSS sky130_fd_pr__nfet_01v8 ad=0p pd=0u as=0p ps=0u w=2e+06u l=300000u
X104 a_55853_15446.t6 A[5].t0 a_56502_14835.t0 VSS sky130_fd_pr__nfet_01v8 ad=0p pd=0u as=0p ps=0u w=2e+06u l=300000u
X105 a_3424_n2152.t2 opcode[3].t0 VDD.t4551 VDD.t4550 sky130_fd_pr__pfet_01v8 ad=0p pd=0u as=0p ps=0u w=1e+06u l=300000u
X106 a_61782_23618.t1 a_61518_24201.t6 VDD.t3233 w_61482_24139# sky130_fd_pr__pfet_01v8 ad=0p pd=0u as=0p ps=0u w=1e+06u l=300000u
X107 a_38484_3565.t3 a_37894_4002.t7 VSS.t707 VSS sky130_fd_pr__nfet_01v8 ad=0p pd=0u as=0p ps=0u w=1e+06u l=300000u
X108 a_9976_13724.t7 a_11155_13581.t4 a_10509_14454.t8 VDD.t3564 sky130_fd_pr__pfet_01v8 ad=0p pd=0u as=0p ps=0u w=2e+06u l=300000u
X109 a_23787_8115.t2 opcode[0].t4 VDD.t1353 VDD.t1352 sky130_fd_pr__pfet_01v8 ad=0p pd=0u as=0p ps=0u w=1e+06u l=300000u
X110 VDD.t325 a_60201_9159.t4 a_61197_9746.t5 VDD.t324 sky130_fd_pr__pfet_01v8 ad=0p pd=0u as=0p ps=0u w=2e+06u l=300000u
X111 VDD.t371 a_3700_13728.t8 a_3642_14458.t2 VDD.t370 sky130_fd_pr__pfet_01v8 ad=0p pd=0u as=0p ps=0u w=1e+06u l=300000u
X112 VDD.t897 A[0].t1 a_8289_6359.t2 VDD.t896 sky130_fd_pr__pfet_01v8 ad=0p pd=0u as=0p ps=0u w=1e+06u l=300000u
X113 a_67372_6666.t1 a_64117_5761.t4 a_67135_7303.t6 VSS sky130_fd_pr__nfet_01v8 ad=0p pd=0u as=0p ps=0u w=2e+06u l=300000u
X114 a_3983_n2152.t5 a_4857_n2637.t5 a_4332_n2152.t3 VDD.t2738 sky130_fd_pr__pfet_01v8 ad=0p pd=0u as=0p ps=0u w=2e+06u l=300000u
X115 VDD.t3952 a_16795_16385.t7 a_7305_14428.t2 VDD.t3951 sky130_fd_pr__pfet_01v8 ad=0p pd=0u as=0p ps=0u w=1e+06u l=300000u
X116 a_1916_13125.t1 opcode[0].t5 a_556_13728.t7 VSS sky130_fd_pr__nfet_01v8 ad=0p pd=0u as=0p ps=0u w=2e+06u l=300000u
X117 a_35591_989.t2 a_35001_1426.t7 VDD.t2736 VDD.t2735 sky130_fd_pr__pfet_01v8 ad=0p pd=0u as=0p ps=0u w=1e+06u l=300000u
X118 VDD.t923 B[4].t1 a_15966_5352.t1 VDD.t922 sky130_fd_pr__pfet_01v8 ad=0p pd=0u as=0p ps=0u w=2e+06u l=300000u
X119 a_70509_n1998.t2 a_39381_15765.t8 a_70509_n2116.t1 VDD.t576 sky130_fd_pr__pfet_01v8 ad=0p pd=0u as=0p ps=0u w=2e+06u l=300000u
X120 a_48248_308.t1 a_48542_1014.t5 VSS.t471 VSS sky130_fd_pr__nfet_01v8 ad=0p pd=0u as=0p ps=0u w=2e+06u l=300000u
X121 VDD.t680 a_48855_n1313.t4 a_52887_1041.t8 VDD.t679 sky130_fd_pr__pfet_01v8 ad=0p pd=0u as=0p ps=0u w=2e+06u l=300000u
X122 a_48254_6910.t2 a_47709_7603.t4 a_48136_6910.t2 VDD.t2159 sky130_fd_pr__pfet_01v8 ad=0p pd=0u as=0p ps=0u w=2e+06u l=300000u
X123 a_51709_7715.t3 a_51119_8152.t7 VSS.t205 VSS sky130_fd_pr__nfet_01v8 ad=0p pd=0u as=0p ps=0u w=1e+06u l=300000u
X124 VDD.t1380 B[6].t1 a_63595_1208.t2 VDD.t1379 sky130_fd_pr__pfet_01v8 ad=0p pd=0u as=0p ps=0u w=1e+06u l=300000u
X125 VDD.t2195 B[0].t1 a_23700_6043.t2 VDD.t2194 sky130_fd_pr__pfet_01v8 ad=0p pd=0u as=0p ps=0u w=1e+06u l=300000u
X126 VSS.t26 a_41507_3295.t5 a_44702_7583.t0 VSS sky130_fd_pr__nfet_01v8 ad=0p pd=0u as=0p ps=0u w=2e+06u l=300000u
X127 a_20611_n2633.t2 a_20054_1744.t8 VDD.t3044 VDD.t3043 sky130_fd_pr__pfet_01v8 ad=0p pd=0u as=0p ps=0u w=1e+06u l=300000u
X128 VDD.t379 a_1964_13805.t4 a_1089_14458.t11 VDD.t378 sky130_fd_pr__pfet_01v8 ad=0p pd=0u as=0p ps=0u w=2e+06u l=300000u
X129 VDD.t4569 a_54908_6842.t9 a_65651_3118.t8 VDD.t4568 sky130_fd_pr__pfet_01v8 ad=0p pd=0u as=0p ps=0u w=2e+06u l=300000u
X130 a_55202_6816.t3 a_51059_8126.t5 VSS.t674 VSS sky130_fd_pr__nfet_01v8 ad=0p pd=0u as=0p ps=0u w=1e+06u l=300000u
X131 a_53576_9091.t3 a_53312_9674.t5 VSS.t265 VSS sky130_fd_pr__nfet_01v8 ad=0p pd=0u as=0p ps=0u w=1e+06u l=300000u
X132 a_4568_n3485.t1 a_3923_n2178.t4 VSS.t50 VSS sky130_fd_pr__nfet_01v8 ad=0p pd=0u as=0p ps=0u w=2e+06u l=300000u
X133 a_3951_1740.t7 a_3392_1740.t4 a_4300_1740.t3 VDD.t2290 sky130_fd_pr__pfet_01v8 ad=0p pd=0u as=0p ps=0u w=2e+06u l=300000u
X134 a_22489_21592.t11 A[0].t2 a_21956_20862.t7 VDD.t898 sky130_fd_pr__pfet_01v8 ad=0p pd=0u as=0p ps=0u w=2e+06u l=300000u
X135 a_48006_21370.t9 a_30645_10037.t9 VDD.t255 w_47542_22001# sky130_fd_pr__pfet_01v8 ad=0p pd=0u as=0p ps=0u w=2e+06u l=300000u
X136 VDD.t4026 A[2].t1 a_20103_5350.t7 VDD.t4025 sky130_fd_pr__pfet_01v8 ad=0p pd=0u as=0p ps=0u w=2e+06u l=300000u
X137 a_40296_23896.t2 a_39706_24333.t7 VDD.t1543 w_39552_24271# sky130_fd_pr__pfet_01v8 ad=0p pd=0u as=0p ps=0u w=1e+06u l=300000u
X138 VSS.t523 a_42756_17049.t7 a_40011_18575.t3 VSS sky130_fd_pr__nfet_01v8 ad=0p pd=0u as=0p ps=0u w=1e+06u l=300000u
X139 a_1156_1740.t6 a_1681_1255.t4 a_807_1740.t3 VDD.t557 sky130_fd_pr__pfet_01v8 ad=0p pd=0u as=0p ps=0u w=2e+06u l=300000u
X140 VDD.t794 opcode[1].t5 a_70513_7422.t11 VDD.t793 sky130_fd_pr__pfet_01v8 ad=0p pd=0u as=0p ps=0u w=2e+06u l=300000u
X141 VDD.t668 A[5].t1 a_55862_18700.t5 w_55768_18664# sky130_fd_pr__pfet_01v8 ad=0p pd=0u as=0p ps=0u w=1e+06u l=300000u
X142 a_1745_8119.t1 opcode[0].t6 VSS.t610 VSS sky130_fd_pr__nfet_01v8 ad=0p pd=0u as=0p ps=0u w=1e+06u l=300000u
X143 VSS.t396 a_508_8992.t4 a_1916_10391.t0 VSS sky130_fd_pr__nfet_01v8 ad=0p pd=0u as=0p ps=0u w=2e+06u l=300000u
X144 a_44399_2324.t2 a_67133_11394.t7 VDD.t535 VDD.t534 sky130_fd_pr__pfet_01v8 ad=0p pd=0u as=0p ps=0u w=1e+06u l=300000u
X145 a_41587_6822.t5 a_41999_6796.t4 a_41705_6822.t2 VDD.t972 sky130_fd_pr__pfet_01v8 ad=0p pd=0u as=0p ps=0u w=2e+06u l=300000u
X146 a_63010_16442.t0 a_30645_3831.t8 VSS.t94 VSS sky130_fd_pr__nfet_01v8 ad=0p pd=0u as=0p ps=0u w=2e+06u l=300000u
X147 a_46215_18571.t2 a_47282_17937.t5 VDD.t3632 w_47188_17948# sky130_fd_pr__pfet_01v8 ad=0p pd=0u as=0p ps=0u w=1e+06u l=300000u
X148 a_16213_21596.t11 a_16859_20723.t4 a_15680_20866.t4 VDD.t3384 sky130_fd_pr__pfet_01v8 ad=0p pd=0u as=0p ps=0u w=2e+06u l=300000u
X149 a_63532_11802.t1 A[3].t3 VDD.t1319 VDD.t1318 sky130_fd_pr__pfet_01v8 ad=0p pd=0u as=0p ps=0u w=1e+06u l=300000u
X150 a_19464_8258.t4 a_20643_8115.t4 a_20588_7655.t1 VSS sky130_fd_pr__nfet_01v8 ad=0p pd=0u as=0p ps=0u w=2e+06u l=300000u
X151 VDD.t1317 A[3].t4 a_19357_21596.t8 VDD.t1316 sky130_fd_pr__pfet_01v8 ad=0p pd=0u as=0p ps=0u w=2e+06u l=300000u
X152 a_41991_1016.t2 a_37848_2326.t4 VDD.t1936 VDD.t1935 sky130_fd_pr__pfet_01v8 ad=0p pd=0u as=0p ps=0u w=1e+06u l=300000u
X153 a_57722_4002.t6 a_54903_1041.t8 VDD.t1017 VDD.t1016 sky130_fd_pr__pfet_01v8 ad=0p pd=0u as=0p ps=0u w=1e+06u l=300000u
X154 a_41066_22066.t1 a_30647_12105.t10 VDD.t1491 w_41029_22004# sky130_fd_pr__pfet_01v8 ad=0p pd=0u as=0p ps=0u w=1e+06u l=300000u
X155 VDD.t3878 opcode[0].t7 a_29954_7911.t4 VDD.t3877 sky130_fd_pr__pfet_01v8 ad=0p pd=0u as=0p ps=0u w=2e+06u l=300000u
X156 a_16805_8966.t5 a_19563_6043.t4 a_20103_5350.t8 VDD.t3385 sky130_fd_pr__pfet_01v8 ad=0p pd=0u as=0p ps=0u w=2e+06u l=300000u
X157 VDD.t542 a_57730_9870.t7 a_58320_9433.t2 VDD.t541 sky130_fd_pr__pfet_01v8 ad=0p pd=0u as=0p ps=0u w=1e+06u l=300000u
X158 a_13011_21592.t5 A[3].t5 a_12478_20862.t3 VDD.t3282 sky130_fd_pr__pfet_01v8 ad=0p pd=0u as=0p ps=0u w=2e+06u l=300000u
X159 a_40799_18571.t2 a_42770_18699.t7 VDD.t960 w_42676_18663# sky130_fd_pr__pfet_01v8 ad=0p pd=0u as=0p ps=0u w=1e+06u l=300000u
X160 a_30647_7968.t5 a_30154_7310.t4 a_29954_7911.t7 VDD.t1424 sky130_fd_pr__pfet_01v8 ad=0p pd=0u as=0p ps=0u w=2e+06u l=300000u
X161 a_29952_3774.t5 a_30152_3173.t4 a_30645_3831.t1 VDD.t1132 sky130_fd_pr__pfet_01v8 ad=0p pd=0u as=0p ps=0u w=2e+06u l=300000u
X162 a_37908_2352.t2 a_35591_989.t4 VDD.t203 VDD.t202 sky130_fd_pr__pfet_01v8 ad=0p pd=0u as=0p ps=0u w=1e+06u l=300000u
X163 a_70455_1913.t2 opcode[1].t6 VDD.t796 VDD.t795 sky130_fd_pr__pfet_01v8 ad=0p pd=0u as=0p ps=0u w=1e+06u l=300000u
X164 a_1099_8992.t3 a_1974_8339.t5 VDD.t1715 VDD.t1714 sky130_fd_pr__pfet_01v8 ad=0p pd=0u as=0p ps=0u w=2e+06u l=300000u
X165 a_46233_15735.t1 a_46176_16428.t10 VDD.t4505 w_45245_16392# sky130_fd_pr__pfet_01v8 ad=0p pd=0u as=0p ps=0u w=1e+06u l=300000u
X166 a_1188_n2152.t7 opcode[3].t1 a_1424_n3485.t1 VSS sky130_fd_pr__nfet_01v8 ad=0p pd=0u as=0p ps=0u w=2e+06u l=300000u
X167 a_41152_1735.t2 a_39799_1042.t8 VDD.t1752 VDD.t1751 sky130_fd_pr__pfet_01v8 ad=0p pd=0u as=0p ps=0u w=1e+06u l=300000u
X168 a_13657_20719.t2 opcode[0].t8 VDD.t3678 VDD.t3677 sky130_fd_pr__pfet_01v8 ad=0p pd=0u as=0p ps=0u w=1e+06u l=300000u
X169 VDD.t4109 B[5].t1 a_30150_1105.t2 VDD.t4108 sky130_fd_pr__pfet_01v8 ad=0p pd=0u as=0p ps=0u w=1e+06u l=300000u
X170 a_39706_24333.t1 A[0].t3 VDD.t899 w_39552_24271# sky130_fd_pr__pfet_01v8 ad=0p pd=0u as=0p ps=0u w=1e+06u l=300000u
X171 a_59311_24329.t1 a_30645_5900.t9 VDD.t755 w_59157_24267# sky130_fd_pr__pfet_01v8 ad=0p pd=0u as=0p ps=0u w=1e+06u l=300000u
X172 a_52355_15766.t4 a_51815_16459.t5 a_52473_15766.t3 w_51779_16397# sky130_fd_pr__pfet_01v8 ad=0p pd=0u as=0p ps=0u w=2e+06u l=300000u
X173 a_9668_1744.t2 opcode[2].t1 VDD.t2916 VDD.t2915 sky130_fd_pr__pfet_01v8 ad=0p pd=0u as=0p ps=0u w=1e+06u l=300000u
X174 a_54658_21365.t3 a_54113_22058.t5 a_54540_21365.t4 w_54076_21996# sky130_fd_pr__pfet_01v8 ad=0p pd=0u as=0p ps=0u w=2e+06u l=300000u
X175 a_6827_15753.t0 B[5].t2 VSS.t648 VSS sky130_fd_pr__nfet_01v8 ad=0p pd=0u as=0p ps=0u w=1e+06u l=300000u
X176 VDD.t1260 a_9334_20862.t8 a_7055_n2174.t2 VDD.t1259 sky130_fd_pr__pfet_01v8 ad=0p pd=0u as=0p ps=0u w=1e+06u l=300000u
X177 a_6813_6359.t2 A[2].t2 VDD.t4028 VDD.t4027 sky130_fd_pr__pfet_01v8 ad=0p pd=0u as=0p ps=0u w=1e+06u l=300000u
X178 a_3642_11724.t2 a_3700_10994.t8 VDD.t2691 VDD.t2690 sky130_fd_pr__pfet_01v8 ad=0p pd=0u as=0p ps=0u w=1e+06u l=300000u
X179 VDD.t642 a_11505_15751.t6 a_11565_15824.t1 VDD.t641 sky130_fd_pr__pfet_01v8 ad=0p pd=0u as=0p ps=0u w=1e+06u l=300000u
X180 a_58868_15769.t8 a_58326_16165.t4 VDD.t977 w_58292_16400# sky130_fd_pr__pfet_01v8 ad=0p pd=0u as=0p ps=0u w=2e+06u l=300000u
X181 a_70509_1028.t2 a_45939_15761.t8 a_70509_1146.t2 VDD.t629 sky130_fd_pr__pfet_01v8 ad=0p pd=0u as=0p ps=0u w=2e+06u l=300000u
X182 a_30645_3831.t4 a_30152_4612.t4 a_29952_3774.t9 VDD.t1431 sky130_fd_pr__pfet_01v8 ad=0p pd=0u as=0p ps=0u w=2e+06u l=300000u
X183 a_61407_1042.t11 a_59627_1042.t8 VDD.t564 VDD.t563 sky130_fd_pr__pfet_01v8 ad=0p pd=0u as=0p ps=0u w=2e+06u l=300000u
X184 VDD.t756 a_30645_5900.t10 a_60671_22062.t2 w_60634_22000# sky130_fd_pr__pfet_01v8 ad=0p pd=0u as=0p ps=0u w=1e+06u l=300000u
X185 a_45939_15029.t1 a_46233_15735.t5 a_45939_15761.t7 VSS sky130_fd_pr__nfet_01v8 ad=0p pd=0u as=0p ps=0u w=2e+06u l=300000u
X186 VDD.t3880 opcode[3].t2 a_19178_n2148.t2 VDD.t3879 sky130_fd_pr__pfet_01v8 ad=0p pd=0u as=0p ps=0u w=1e+06u l=300000u
X187 VDD.t959 a_61518_24201.t7 a_61782_23618.t0 w_61482_24139# sky130_fd_pr__pfet_01v8 ad=0p pd=0u as=0p ps=0u w=1e+06u l=300000u
X188 a_48136_6910.t11 a_44405_8194.t6 VDD.t235 VDD.t234 sky130_fd_pr__pfet_01v8 ad=0p pd=0u as=0p ps=0u w=2e+06u l=300000u
X189 a_70509_1028.t6 a_70455_1913.t4 a_71842_1737.t1 VSS sky130_fd_pr__nfet_01v8 ad=0p pd=0u as=0p ps=0u w=2e+06u l=300000u
X190 a_70509_10624.t2 a_65769_n1230.t8 VDD.t3860 VDD.t3859 sky130_fd_pr__pfet_01v8 ad=0p pd=0u as=0p ps=0u w=2e+06u l=300000u
X191 a_40859_18597.t2 a_40799_18571.t4 VDD.t1351 w_40630_17952# sky130_fd_pr__pfet_01v8 ad=0p pd=0u as=0p ps=0u w=2e+06u l=300000u
X192 a_11165_8115.t2 opcode[0].t9 VDD.t3868 VDD.t3867 sky130_fd_pr__pfet_01v8 ad=0p pd=0u as=0p ps=0u w=1e+06u l=300000u
X193 a_4332_n2152.t2 a_4857_n2637.t6 a_3983_n2152.t4 VDD.t2739 sky130_fd_pr__pfet_01v8 ad=0p pd=0u as=0p ps=0u w=2e+06u l=300000u
X194 VSS.t65 a_1964_13805.t5 a_1916_13125.t0 VSS sky130_fd_pr__nfet_01v8 ad=0p pd=0u as=0p ps=0u w=2e+06u l=300000u
X195 a_30645_n306.t2 a_30152_n964.t4 a_29952_n363.t5 VDD.t41 sky130_fd_pr__pfet_01v8 ad=0p pd=0u as=0p ps=0u w=2e+06u l=300000u
X196 VSS.t646 a_42301_n1318.t5 a_44696_1713.t1 VSS sky130_fd_pr__nfet_01v8 ad=0p pd=0u as=0p ps=0u w=2e+06u l=300000u
X197 VDD.t2068 a_63527_9231.t7 a_64117_8794.t2 VDD.t2067 sky130_fd_pr__pfet_01v8 ad=0p pd=0u as=0p ps=0u w=1e+06u l=300000u
X198 a_66063_6587.t2 a_64117_5761.t5 VDD.t1139 VDD.t1138 sky130_fd_pr__pfet_01v8 ad=0p pd=0u as=0p ps=0u w=1e+06u l=300000u
X199 a_1089_14458.t10 a_1964_13805.t6 VDD.t381 VDD.t380 sky130_fd_pr__pfet_01v8 ad=0p pd=0u as=0p ps=0u w=2e+06u l=300000u
X200 a_59627_1042.t6 a_59082_1735.t4 a_59627_310.t1 VSS sky130_fd_pr__nfet_01v8 ad=0p pd=0u as=0p ps=0u w=2e+06u l=300000u
X201 a_62375_18703.t0 a_30645_3831.t9 VDD.t536 w_62281_18667# sky130_fd_pr__pfet_01v8 ad=0p pd=0u as=0p ps=0u w=1e+06u l=300000u
X202 a_4332_n2152.t5 opcode[3].t3 a_4568_n3485.t0 VSS sky130_fd_pr__nfet_01v8 ad=0p pd=0u as=0p ps=0u w=2e+06u l=300000u
X203 VDD.t2702 a_35575_3749.t4 a_40093_1016.t2 VDD.t2701 sky130_fd_pr__pfet_01v8 ad=0p pd=0u as=0p ps=0u w=1e+06u l=300000u
X204 a_21956_20862.t6 A[0].t4 a_22489_21592.t10 VDD.t2314 sky130_fd_pr__pfet_01v8 ad=0p pd=0u as=0p ps=0u w=2e+06u l=300000u
X205 VDD.t147 A[1].t0 a_48006_21370.t0 w_47542_22001# sky130_fd_pr__pfet_01v8 ad=0p pd=0u as=0p ps=0u w=2e+06u l=300000u
X206 VSS.t283 a_59187_17949.t5 a_51813_16162.t0 VSS sky130_fd_pr__nfet_01v8 ad=0p pd=0u as=0p ps=0u w=1e+06u l=300000u
X207 VDD.t3679 a_39706_24333.t8 a_40296_23896.t1 w_39552_24271# sky130_fd_pr__pfet_01v8 ad=0p pd=0u as=0p ps=0u w=1e+06u l=300000u
X208 VDD.t2397 a_54713_3294.t4 a_57744_8220.t2 VDD.t2396 sky130_fd_pr__pfet_01v8 ad=0p pd=0u as=0p ps=0u w=1e+06u l=300000u
X209 a_39807_6090.t1 a_40101_6796.t4 VSS.t673 VSS sky130_fd_pr__nfet_01v8 ad=0p pd=0u as=0p ps=0u w=2e+06u l=300000u
X210 a_8021_8115.t2 opcode[0].t10 VDD.t3810 VDD.t3809 sky130_fd_pr__pfet_01v8 ad=0p pd=0u as=0p ps=0u w=1e+06u l=300000u
X211 a_54790_6842.t11 a_53010_6842.t8 VDD.t2592 VDD.t2591 sky130_fd_pr__pfet_01v8 ad=0p pd=0u as=0p ps=0u w=2e+06u l=300000u
X212 VDD.t257 a_53891_18572.t4 a_53951_18598.t5 w_53722_17953# sky130_fd_pr__pfet_01v8 ad=0p pd=0u as=0p ps=0u w=2e+06u l=300000u
X213 a_10227_1744.t8 opcode[2].t2 VDD.t2918 VDD.t2917 sky130_fd_pr__pfet_01v8 ad=0p pd=0u as=0p ps=0u w=2e+06u l=300000u
X214 VDD.t1492 a_30647_12105.t11 a_41066_22066.t0 w_41029_22004# sky130_fd_pr__pfet_01v8 ad=0p pd=0u as=0p ps=0u w=1e+06u l=300000u
X215 VSS.t353 B[0].t2 a_30154_11447.t3 VSS sky130_fd_pr__nfet_01v8 ad=0p pd=0u as=0p ps=0u w=1e+06u l=300000u
X216 a_56102_24201.t3 a_53357_22238.t4 a_56220_24201.t5 w_56066_24139# sky130_fd_pr__pfet_01v8 ad=0p pd=0u as=0p ps=0u w=2e+06u l=300000u
X217 VDD.t798 opcode[1].t7 a_4879_10851.t2 VDD.t797 sky130_fd_pr__pfet_01v8 ad=0p pd=0u as=0p ps=0u w=1e+06u l=300000u
X218 a_70459_8189.t3 opcode[1].t8 VSS.t139 VSS sky130_fd_pr__nfet_01v8 ad=0p pd=0u as=0p ps=0u w=1e+06u l=300000u
X219 a_35594_7027.t0 a_35004_7464.t7 VDD.t2794 VDD.t2793 sky130_fd_pr__pfet_01v8 ad=0p pd=0u as=0p ps=0u w=1e+06u l=300000u
X220 VDD.t2721 a_43055_24209.t5 a_43319_23626.t2 w_43019_24147# sky130_fd_pr__pfet_01v8 ad=0p pd=0u as=0p ps=0u w=1e+06u l=300000u
X221 a_5794_16410.t5 A[6].t1 a_5659_15753.t4 VDD.t3009 sky130_fd_pr__pfet_01v8 ad=0p pd=0u as=0p ps=0u w=2e+06u l=300000u
X222 VDD.t612 a_55853_15446.t7 a_54245_18572.t2 w_55759_15410# sky130_fd_pr__pfet_01v8 ad=0p pd=0u as=0p ps=0u w=1e+06u l=300000u
X223 VSS.t46 A[4].t2 a_5331_6357.t3 VSS sky130_fd_pr__nfet_01v8 ad=0p pd=0u as=0p ps=0u w=1e+06u l=300000u
X224 a_52762_21071.t5 A[2].t3 VDD.t4029 w_52608_21009# sky130_fd_pr__pfet_01v8 ad=0p pd=0u as=0p ps=0u w=1e+06u l=300000u
X225 a_70513_16900.t11 opcode[1].t9 VDD.t800 VDD.t799 sky130_fd_pr__pfet_01v8 ad=0p pd=0u as=0p ps=0u w=2e+06u l=300000u
X226 a_10509_11720.t2 a_9918_14454.t4 a_9976_10990.t2 VDD.t2819 sky130_fd_pr__pfet_01v8 ad=0p pd=0u as=0p ps=0u w=2e+06u l=300000u
X227 a_49904_21370.t5 a_48124_21370.t9 VDD.t4077 w_47542_22001# sky130_fd_pr__pfet_01v8 ad=0p pd=0u as=0p ps=0u w=2e+06u l=300000u
X228 VSS.t374 a_55848_17050.t7 a_53103_18576.t3 VSS sky130_fd_pr__nfet_01v8 ad=0p pd=0u as=0p ps=0u w=1e+06u l=300000u
X229 VDD.t3145 a_46652_3872.t5 a_46916_3289.t2 VDD.t3144 sky130_fd_pr__pfet_01v8 ad=0p pd=0u as=0p ps=0u w=1e+06u l=300000u
X230 VSS.t222 a_30154_7310.t5 a_31379_7968.t1 VSS sky130_fd_pr__nfet_01v8 ad=0p pd=0u as=0p ps=0u w=2e+06u l=300000u
X231 a_70509_13650.t6 a_70455_14535.t4 a_70509_13768.t8 VDD.t2248 sky130_fd_pr__pfet_01v8 ad=0p pd=0u as=0p ps=0u w=2e+06u l=300000u
X232 a_14357_10851.t3 opcode[1].t10 VSS.t140 VSS sky130_fd_pr__nfet_01v8 ad=0p pd=0u as=0p ps=0u w=1e+06u l=300000u
X233 VDD.t4139 B[1].t1 a_29952_9980.t2 VDD.t4138 sky130_fd_pr__pfet_01v8 ad=0p pd=0u as=0p ps=0u w=2e+06u l=300000u
X234 a_35594_7027.t1 a_35004_7464.t8 VSS.t452 VSS sky130_fd_pr__nfet_01v8 ad=0p pd=0u as=0p ps=0u w=1e+06u l=300000u
X235 a_57676_2326.t3 a_67135_3808.t7 VSS.t642 VSS sky130_fd_pr__nfet_01v8 ad=0p pd=0u as=0p ps=0u w=1e+06u l=300000u
X236 a_51690_3564.t2 a_51100_4001.t7 VDD.t2188 VDD.t2187 sky130_fd_pr__pfet_01v8 ad=0p pd=0u as=0p ps=0u w=1e+06u l=300000u
X237 VDD.t757 a_30645_5900.t11 a_59311_24329.t0 w_59157_24267# sky130_fd_pr__pfet_01v8 ad=0p pd=0u as=0p ps=0u w=1e+06u l=300000u
X238 a_70459_17667.t2 opcode[1].t11 VDD.t802 VDD.t801 sky130_fd_pr__pfet_01v8 ad=0p pd=0u as=0p ps=0u w=1e+06u l=300000u
X239 a_19997_8988.t8 a_19937_8962.t8 a_19464_8258.t1 VDD.t2127 sky130_fd_pr__pfet_01v8 ad=0p pd=0u as=0p ps=0u w=2e+06u l=300000u
X240 VDD.t3053 a_7432_1744.t8 a_7989_n2633.t2 VDD.t3052 sky130_fd_pr__pfet_01v8 ad=0p pd=0u as=0p ps=0u w=1e+06u l=300000u