* NGSPICE file created from logic_unit.ext - technology: sky130B

.subckt logic_unit Y[1] Y[2] Y[3] Y[4] Y[5] A[4] A[5] A[6] A[0] A[1] A[2] A[3] A[7]
+ B[0] B[1] B[2] B[3] B[4] B[5] B[6] B[7] opcode[1] opcode[0] Y[7] Y[6] Y[0] VSS VDD
X0 VDD B[7] a_20252_3694# VDD sky130_fd_pr__pfet_01v8 ad=1.45e+14p pd=1.13448e+09u as=1.74e+12p ps=1.374e+07u w=2e+06u l=300000u
X1 VDD a_3891_1714# a_3951_1740# VDD sky130_fd_pr__pfet_01v8 ad=0p pd=0u as=4.06e+12p ps=3.206e+07u w=2e+06u l=300000u
X2 a_3881_n3752# A[1] VDD VDD sky130_fd_pr__pfet_01v8 ad=5.8e+11p pd=5.16e+06u as=0p ps=0u w=1e+06u l=300000u
X3 VSS A[0] a_n25_n6671# VSS sky130_fd_pr__nfet_01v8 ad=6.928e+13p pd=4.5344e+08u as=2.9e+11p ps=2.58e+06u w=1e+06u l=300000u
X4 VDD A[7] a_10615_3699# VDD sky130_fd_pr__pfet_01v8 ad=0p pd=0u as=8.7e+11p ps=7.74e+06u w=1e+06u l=300000u
X5 VDD opcode[0] a_3392_1740# VDD sky130_fd_pr__pfet_01v8 ad=0p pd=0u as=5.8e+11p ps=5.16e+06u w=1e+06u l=300000u
X6 a_12813_n7362# a_12386_n6669# a_12931_n7362# VDD sky130_fd_pr__pfet_01v8 ad=4.06e+12p pd=3.206e+07u as=1.74e+12p ps=1.374e+07u w=2e+06u l=300000u
X7 a_3891_n1020# a_4290_n3726# VDD VDD sky130_fd_pr__pfet_01v8 ad=5.8e+11p pd=5.16e+06u as=0p ps=0u w=1e+06u l=300000u
X8 VDD B[7] a_14881_n7360# VDD sky130_fd_pr__pfet_01v8 ad=0p pd=0u as=4.06e+12p ps=3.206e+07u w=2e+06u l=300000u
X9 a_10852_3062# A[7] a_10615_3699# VSS sky130_fd_pr__nfet_01v8 ad=5.8e+11p pd=4.58e+06u as=5.8e+11p ps=4.58e+06u w=2e+06u l=300000u
X10 VDD a_3891_n1020# a_3951_n994# VDD sky130_fd_pr__pfet_01v8 ad=0p pd=0u as=4.06e+12p ps=3.206e+07u w=2e+06u l=300000u
X11 a_20054_n990# opcode[1] a_20290_n2323# VSS sky130_fd_pr__nfet_01v8 ad=5.8e+11p pd=4.58e+06u as=5.8e+11p ps=4.58e+06u w=2e+06u l=300000u
X12 a_4290_n3726# a_2588_n7362# a_3941_n3726# VDD sky130_fd_pr__pfet_01v8 ad=2.32e+12p pd=1.832e+07u as=4.06e+12p ps=3.206e+07u w=2e+06u l=300000u
X13 VDD a_747_1714# a_807_1740# VDD sky130_fd_pr__pfet_01v8 ad=0p pd=0u as=4.06e+12p ps=3.206e+07u w=2e+06u l=300000u
X14 a_10217_n3722# a_6725_n7362# a_10566_n3722# VDD sky130_fd_pr__pfet_01v8 ad=4.06e+12p pd=3.206e+07u as=2.32e+12p ps=1.832e+07u w=2e+06u l=300000u
X15 VDD opcode[1] a_3392_n994# VDD sky130_fd_pr__pfet_01v8 ad=0p pd=0u as=5.8e+11p ps=5.16e+06u w=1e+06u l=300000u
X16 a_21997_n6357# A[7] VDD VDD sky130_fd_pr__pfet_01v8 ad=5.8e+11p pd=5.16e+06u as=0p ps=0u w=1e+06u l=300000u
X17 a_17916_3694# A[5] a_17798_3694# VDD sky130_fd_pr__pfet_01v8 ad=1.74e+12p pd=1.374e+07u as=1.16e+12p ps=9.16e+06u w=2e+06u l=300000u
X18 a_7083_n990# a_7023_n1016# VDD VDD sky130_fd_pr__pfet_01v8 ad=4.06e+12p pd=3.206e+07u as=0p ps=0u w=2e+06u l=300000u
X19 a_10576_n990# opcode[1] a_10812_n2323# VSS sky130_fd_pr__nfet_01v8 ad=5.8e+11p pd=4.58e+06u as=5.8e+11p ps=4.58e+06u w=2e+06u l=300000u
X20 VDD A[5] a_7669_3697# VDD sky130_fd_pr__pfet_01v8 ad=0p pd=0u as=8.7e+11p ps=7.74e+06u w=1e+06u l=300000u
X21 a_2588_n7362# a_2043_n6669# a_2588_n8094# VSS sky130_fd_pr__nfet_01v8 ad=5.8e+11p pd=4.58e+06u as=1.16e+12p ps=9.16e+06u w=2e+06u l=300000u
X22 VSS a_6725_n7362# a_11038_n5055# VSS sky130_fd_pr__nfet_01v8 ad=0p pd=0u as=5.8e+11p ps=4.58e+06u w=2e+06u l=300000u
X23 a_7906_3060# A[5] a_7669_3697# VSS sky130_fd_pr__nfet_01v8 ad=5.8e+11p pd=4.58e+06u as=5.8e+11p ps=4.58e+06u w=2e+06u l=300000u
X24 a_7083_1744# a_7023_1718# VDD VDD sky130_fd_pr__pfet_01v8 ad=4.06e+12p pd=3.206e+07u as=0p ps=0u w=2e+06u l=300000u
X25 VDD A[1] a_3881_n3752# VDD sky130_fd_pr__pfet_01v8 ad=0p pd=0u as=0p ps=0u w=1e+06u l=300000u
X26 VDD a_747_n1020# a_807_n994# VDD sky130_fd_pr__pfet_01v8 ad=0p pd=0u as=4.06e+12p ps=3.206e+07u w=2e+06u l=300000u
X27 Y[6] a_20054_n990# VDD VDD sky130_fd_pr__pfet_01v8 ad=5.8e+11p pd=5.16e+06u as=0p ps=0u w=1e+06u l=300000u
X28 VDD a_10566_n3722# a_10167_n1016# VDD sky130_fd_pr__pfet_01v8 ad=0p pd=0u as=5.8e+11p ps=5.16e+06u w=1e+06u l=300000u
X29 VDD a_4290_n3726# a_3891_n1020# VDD sky130_fd_pr__pfet_01v8 ad=0p pd=0u as=0p ps=0u w=1e+06u l=300000u
X30 a_747_1714# a_11952_3694# VSS VSS sky130_fd_pr__nfet_01v8 ad=2.9e+11p pd=2.58e+06u as=0p ps=0u w=1e+06u l=300000u
X31 a_3951_1740# a_3392_1740# a_4300_1740# VDD sky130_fd_pr__pfet_01v8 ad=0p pd=0u as=2.32e+12p ps=1.832e+07u w=2e+06u l=300000u
X32 a_20579_n1475# a_20054_1744# VDD VDD sky130_fd_pr__pfet_01v8 ad=5.8e+11p pd=5.16e+06u as=0p ps=0u w=1e+06u l=300000u
X33 a_15293_n7386# B[7] VDD VDD sky130_fd_pr__pfet_01v8 ad=5.8e+11p pd=5.16e+06u as=0p ps=0u w=1e+06u l=300000u
X34 a_1382_n5059# a_737_n3752# VSS VSS sky130_fd_pr__nfet_01v8 ad=5.8e+11p pd=4.58e+06u as=0p ps=0u w=2e+06u l=300000u
X35 a_1156_1740# a_897_3260# a_807_1740# VDD sky130_fd_pr__pfet_01v8 ad=2.32e+12p pd=1.832e+07u as=0p ps=0u w=2e+06u l=300000u
X36 a_20526_n2323# a_19146_n990# a_20054_n990# VSS sky130_fd_pr__nfet_01v8 ad=5.8e+11p pd=4.58e+06u as=0p ps=0u w=2e+06u l=300000u
X37 VSS B[7] a_20134_3694# VSS sky130_fd_pr__nfet_01v8 ad=0p pd=0u as=2.9e+11p ps=2.58e+06u w=1e+06u l=300000u
X38 a_10566_n3722# a_6725_n7362# a_10217_n3722# VDD sky130_fd_pr__pfet_01v8 ad=0p pd=0u as=0p ps=0u w=2e+06u l=300000u
X39 a_9668_n990# opcode[1] VDD VDD sky130_fd_pr__pfet_01v8 ad=5.8e+11p pd=5.16e+06u as=0p ps=0u w=1e+06u l=300000u
X40 VSS opcode[1] a_3392_n994# VSS sky130_fd_pr__nfet_01v8 ad=0p pd=0u as=2.9e+11p ps=2.58e+06u w=1e+06u l=300000u
X41 a_4951_n7390# B[2] VDD VDD sky130_fd_pr__pfet_01v8 ad=5.8e+11p pd=5.16e+06u as=0p ps=0u w=1e+06u l=300000u
X42 a_3951_n994# a_3392_n994# a_4300_n994# VDD sky130_fd_pr__pfet_01v8 ad=0p pd=0u as=2.32e+12p ps=1.832e+07u w=2e+06u l=300000u
X43 a_22839_n3722# a_21997_n6357# VDD VDD sky130_fd_pr__pfet_01v8 ad=4.06e+12p pd=3.206e+07u as=0p ps=0u w=2e+06u l=300000u
X44 a_9668_1744# opcode[0] VDD VDD sky130_fd_pr__pfet_01v8 ad=5.8e+11p pd=5.16e+06u as=0p ps=0u w=1e+06u l=300000u
X45 a_1156_n994# a_1681_n1479# a_807_n994# VDD sky130_fd_pr__pfet_01v8 ad=2.32e+12p pd=1.832e+07u as=0p ps=0u w=2e+06u l=300000u
X46 a_2824_n8094# A[1] a_2588_n7362# VSS sky130_fd_pr__nfet_01v8 ad=5.8e+11p pd=4.58e+06u as=0p ps=0u w=2e+06u l=300000u
X47 VDD B[4] a_16748_3696# VDD sky130_fd_pr__pfet_01v8 ad=0p pd=0u as=1.74e+12p ps=1.374e+07u w=2e+06u l=300000u
X48 VSS a_14303_n1479# a_14250_n2327# VSS sky130_fd_pr__nfet_01v8 ad=0p pd=0u as=5.8e+11p ps=4.58e+06u w=2e+06u l=300000u
X49 a_10167_n1016# a_10566_n3722# VDD VDD sky130_fd_pr__pfet_01v8 ad=0p pd=0u as=0p ps=0u w=1e+06u l=300000u
X50 a_3891_n1020# a_4290_n3726# VDD VDD sky130_fd_pr__pfet_01v8 ad=0p pd=0u as=0p ps=0u w=1e+06u l=300000u
X51 a_13369_1714# a_16630_3696# VSS VSS sky130_fd_pr__nfet_01v8 ad=2.9e+11p pd=2.58e+06u as=0p ps=0u w=1e+06u l=300000u
X52 a_1146_n3726# opcode[0] a_1382_n5059# VSS sky130_fd_pr__nfet_01v8 ad=5.8e+11p pd=4.58e+06u as=0p ps=0u w=2e+06u l=300000u
X53 a_10227_n990# opcode[1] VDD VDD sky130_fd_pr__pfet_01v8 ad=4.06e+12p pd=3.206e+07u as=0p ps=0u w=2e+06u l=300000u
X54 VSS a_20579_n1475# a_20526_n2323# VSS sky130_fd_pr__nfet_01v8 ad=0p pd=0u as=0p ps=0u w=2e+06u l=300000u
X55 a_10227_1744# opcode[0] VDD VDD sky130_fd_pr__pfet_01v8 ad=4.06e+12p pd=3.206e+07u as=0p ps=0u w=2e+06u l=300000u
X56 Y[1] a_4300_n994# VSS VSS sky130_fd_pr__nfet_01v8 ad=2.9e+11p pd=2.58e+06u as=0p ps=0u w=1e+06u l=300000u
X57 a_15574_3694# B[3] VDD VDD sky130_fd_pr__pfet_01v8 ad=1.74e+12p pd=1.374e+07u as=0p ps=0u w=2e+06u l=300000u
X58 VDD a_7432_n990# Y[2] VDD sky130_fd_pr__pfet_01v8 ad=0p pd=0u as=5.8e+11p ps=5.16e+06u w=1e+06u l=300000u
X59 a_13238_3694# A[1] a_13120_3694# VDD sky130_fd_pr__pfet_01v8 ad=1.74e+12p pd=1.374e+07u as=1.16e+12p ps=9.16e+06u w=2e+06u l=300000u
X60 VDD a_7432_1744# a_7957_n1475# VDD sky130_fd_pr__pfet_01v8 ad=0p pd=0u as=5.8e+11p ps=5.16e+06u w=1e+06u l=300000u
X61 VSS B[1] a_2824_n8094# VSS sky130_fd_pr__nfet_01v8 ad=0p pd=0u as=0p ps=0u w=2e+06u l=300000u
X62 VDD B[1] a_1755_3697# VDD sky130_fd_pr__pfet_01v8 ad=0p pd=0u as=8.7e+11p ps=7.74e+06u w=1e+06u l=300000u
X63 a_17158_n2327# a_16513_n1020# VSS VSS sky130_fd_pr__nfet_01v8 ad=5.8e+11p pd=4.58e+06u as=0p ps=0u w=2e+06u l=300000u
X64 VSS a_23723_n1475# a_23670_n2323# VSS sky130_fd_pr__nfet_01v8 ad=0p pd=0u as=5.8e+11p ps=4.58e+06u w=2e+06u l=300000u
X65 Y[2] a_7432_n990# VDD VDD sky130_fd_pr__pfet_01v8 ad=0p pd=0u as=0p ps=0u w=1e+06u l=300000u
X66 a_7957_n1475# a_7432_1744# VDD VDD sky130_fd_pr__pfet_01v8 ad=0p pd=0u as=0p ps=0u w=1e+06u l=300000u
X67 a_737_n3752# A[0] VSS VSS sky130_fd_pr__nfet_01v8 ad=2.9e+11p pd=2.58e+06u as=0p ps=0u w=1e+06u l=300000u
X68 VSS A[4] a_8249_n6669# VSS sky130_fd_pr__nfet_01v8 ad=0p pd=0u as=2.9e+11p ps=2.58e+06u w=1e+06u l=300000u
X69 a_6221_3697# B[4] VDD VDD sky130_fd_pr__pfet_01v8 ad=8.7e+11p pd=7.74e+06u as=0p ps=0u w=1e+06u l=300000u
X70 a_5291_3262# a_4701_3699# VDD VDD sky130_fd_pr__pfet_01v8 ad=5.8e+11p pd=5.16e+06u as=0p ps=0u w=1e+06u l=300000u
X71 a_15293_n7386# B[7] VSS VSS sky130_fd_pr__nfet_01v8 ad=2.9e+11p pd=2.58e+06u as=0p ps=0u w=1e+06u l=300000u
X72 a_2470_n7362# A[1] VDD VDD sky130_fd_pr__pfet_01v8 ad=4.06e+12p pd=3.206e+07u as=0p ps=0u w=2e+06u l=300000u
X73 a_9757_3262# a_9167_3699# VDD VDD sky130_fd_pr__pfet_01v8 ad=5.8e+11p pd=5.16e+06u as=0p ps=0u w=1e+06u l=300000u
X74 VSS B[3] a_15456_3694# VSS sky130_fd_pr__nfet_01v8 ad=0p pd=0u as=2.9e+11p ps=2.58e+06u w=1e+06u l=300000u
X75 VDD opcode[1] a_22290_n990# VDD sky130_fd_pr__pfet_01v8 ad=0p pd=0u as=5.8e+11p ps=5.16e+06u w=1e+06u l=300000u
X76 VDD a_13120_3694# a_3891_1714# VDD sky130_fd_pr__pfet_01v8 ad=0p pd=0u as=5.8e+11p ps=5.16e+06u w=1e+06u l=300000u
X77 VDD a_15456_3694# a_10167_1718# VDD sky130_fd_pr__pfet_01v8 ad=0p pd=0u as=5.8e+11p ps=5.16e+06u w=1e+06u l=300000u
X78 a_16014_1740# opcode[0] VDD VDD sky130_fd_pr__pfet_01v8 ad=5.8e+11p pd=5.16e+06u as=0p ps=0u w=1e+06u l=300000u
X79 a_21997_n6357# A[7] VDD VDD sky130_fd_pr__pfet_01v8 ad=0p pd=0u as=0p ps=0u w=1e+06u l=300000u
X80 a_4762_n5059# a_3382_n3726# a_4290_n3726# VSS sky130_fd_pr__nfet_01v8 ad=5.8e+11p pd=4.58e+06u as=5.8e+11p ps=4.58e+06u w=2e+06u l=300000u
X81 VDD opcode[0] a_22290_1744# VDD sky130_fd_pr__pfet_01v8 ad=0p pd=0u as=5.8e+11p ps=5.16e+06u w=1e+06u l=300000u
X82 a_10227_n990# a_10167_n1016# VDD VDD sky130_fd_pr__pfet_01v8 ad=0p pd=0u as=0p ps=0u w=2e+06u l=300000u
X83 a_10227_1744# a_10167_1718# VDD VDD sky130_fd_pr__pfet_01v8 ad=0p pd=0u as=0p ps=0u w=2e+06u l=300000u
X84 a_16014_n994# opcode[1] VDD VDD sky130_fd_pr__pfet_01v8 ad=5.8e+11p pd=5.16e+06u as=0p ps=0u w=1e+06u l=300000u
X85 a_7013_n3748# A[2] VSS VSS sky130_fd_pr__nfet_01v8 ad=2.9e+11p pd=2.58e+06u as=0p ps=0u w=1e+06u l=300000u
X86 VDD opcode[0] a_13429_1740# VDD sky130_fd_pr__pfet_01v8 ad=0p pd=0u as=4.06e+12p ps=3.206e+07u w=2e+06u l=300000u
X87 a_7083_n990# a_7023_n1016# VDD VDD sky130_fd_pr__pfet_01v8 ad=0p pd=0u as=0p ps=0u w=2e+06u l=300000u
X88 a_13167_n8094# A[6] a_12931_n7362# VSS sky130_fd_pr__nfet_01v8 ad=5.8e+11p pd=4.58e+06u as=5.8e+11p ps=4.58e+06u w=2e+06u l=300000u
X89 a_7083_1744# a_7023_1718# VDD VDD sky130_fd_pr__pfet_01v8 ad=0p pd=0u as=0p ps=0u w=2e+06u l=300000u
X90 VSS opcode[0] a_16004_n3726# VSS sky130_fd_pr__nfet_01v8 ad=0p pd=0u as=2.9e+11p ps=2.58e+06u w=1e+06u l=300000u
X91 VDD opcode[0] a_16004_n3726# VDD sky130_fd_pr__pfet_01v8 ad=0p pd=0u as=5.8e+11p ps=5.16e+06u w=1e+06u l=300000u
X92 Y[6] a_20054_n990# VDD VDD sky130_fd_pr__pfet_01v8 ad=0p pd=0u as=0p ps=0u w=1e+06u l=300000u
X93 a_807_1740# a_248_1740# a_1156_1740# VDD sky130_fd_pr__pfet_01v8 ad=0p pd=0u as=0p ps=0u w=2e+06u l=300000u
X94 VDD a_13778_1740# a_14303_n1479# VDD sky130_fd_pr__pfet_01v8 ad=0p pd=0u as=5.8e+11p ps=5.16e+06u w=1e+06u l=300000u
X95 VSS a_8259_3260# a_17394_407# VSS sky130_fd_pr__nfet_01v8 ad=0p pd=0u as=5.8e+11p ps=4.58e+06u w=2e+06u l=300000u
X96 VDD opcode[1] a_13429_n994# VDD sky130_fd_pr__pfet_01v8 ad=0p pd=0u as=4.06e+12p ps=3.206e+07u w=2e+06u l=300000u
X97 VSS a_2588_n7362# a_4762_n5059# VSS sky130_fd_pr__nfet_01v8 ad=0p pd=0u as=0p ps=0u w=2e+06u l=300000u
X98 VDD opcode[0] a_248_1740# VDD sky130_fd_pr__pfet_01v8 ad=0p pd=0u as=5.8e+11p ps=5.16e+06u w=1e+06u l=300000u
X99 a_22849_n990# a_22290_n990# a_23198_n990# VDD sky130_fd_pr__pfet_01v8 ad=4.06e+12p pd=3.206e+07u as=2.32e+12p ps=1.832e+07u w=2e+06u l=300000u
X100 a_14881_n7360# a_14454_n6667# a_14999_n7360# VDD sky130_fd_pr__pfet_01v8 ad=0p pd=0u as=1.74e+12p ps=1.374e+07u w=2e+06u l=300000u
X101 a_11038_n5055# a_9658_n3722# a_10566_n3722# VSS sky130_fd_pr__nfet_01v8 ad=0p pd=0u as=5.8e+11p ps=4.58e+06u w=2e+06u l=300000u
X102 a_20579_n1475# a_20054_1744# VDD VDD sky130_fd_pr__pfet_01v8 ad=0p pd=0u as=0p ps=0u w=1e+06u l=300000u
X103 a_4825_n1479# a_4300_1740# VSS VSS sky130_fd_pr__nfet_01v8 ad=2.9e+11p pd=2.58e+06u as=0p ps=0u w=1e+06u l=300000u
X104 VSS a_5291_3262# a_11048_411# VSS sky130_fd_pr__nfet_01v8 ad=0p pd=0u as=5.8e+11p ps=4.58e+06u w=2e+06u l=300000u
X105 a_13369_n1020# a_13768_n3726# VSS VSS sky130_fd_pr__nfet_01v8 ad=2.9e+11p pd=2.58e+06u as=0p ps=0u w=1e+06u l=300000u
X106 a_1156_1740# a_897_3260# a_807_1740# VDD sky130_fd_pr__pfet_01v8 ad=0p pd=0u as=0p ps=0u w=2e+06u l=300000u
X107 a_22849_1744# a_22290_1744# a_23198_1744# VDD sky130_fd_pr__pfet_01v8 ad=4.06e+12p pd=3.206e+07u as=2.32e+12p ps=1.832e+07u w=2e+06u l=300000u
X108 VDD B[5] a_17916_3694# VDD sky130_fd_pr__pfet_01v8 ad=0p pd=0u as=0p ps=0u w=2e+06u l=300000u
X109 a_807_n994# a_248_n994# a_1156_n994# VDD sky130_fd_pr__pfet_01v8 ad=0p pd=0u as=0p ps=0u w=2e+06u l=300000u
X110 VDD a_13778_n994# Y[4] VDD sky130_fd_pr__pfet_01v8 ad=0p pd=0u as=5.8e+11p ps=5.16e+06u w=1e+06u l=300000u
X111 VDD A[6] a_19635_n3748# VDD sky130_fd_pr__pfet_01v8 ad=0p pd=0u as=5.8e+11p ps=5.16e+06u w=1e+06u l=300000u
X112 VDD A[2] a_4112_n6671# VDD sky130_fd_pr__pfet_01v8 ad=0p pd=0u as=5.8e+11p ps=5.16e+06u w=1e+06u l=300000u
X113 VDD opcode[1] a_248_n994# VDD sky130_fd_pr__pfet_01v8 ad=0p pd=0u as=5.8e+11p ps=5.16e+06u w=1e+06u l=300000u
X114 VSS B[6] a_13167_n8094# VSS sky130_fd_pr__nfet_01v8 ad=0p pd=0u as=0p ps=0u w=2e+06u l=300000u
X115 a_10167_n1016# a_10566_n3722# VDD VDD sky130_fd_pr__pfet_01v8 ad=0p pd=0u as=0p ps=0u w=1e+06u l=300000u
X116 a_1156_n994# a_1681_n1479# a_807_n994# VDD sky130_fd_pr__pfet_01v8 ad=0p pd=0u as=0p ps=0u w=2e+06u l=300000u
X117 a_402_n7364# a_814_n7390# a_520_n7364# VDD sky130_fd_pr__pfet_01v8 ad=4.06e+12p pd=3.206e+07u as=1.74e+12p ps=1.374e+07u w=2e+06u l=300000u
X118 a_16513_n1020# a_16912_n3726# VSS VSS sky130_fd_pr__nfet_01v8 ad=2.9e+11p pd=2.58e+06u as=0p ps=0u w=1e+06u l=300000u
X119 a_14406_3692# A[2] a_14288_3692# VDD sky130_fd_pr__pfet_01v8 ad=1.74e+12p pd=1.374e+07u as=1.16e+12p ps=9.16e+06u w=2e+06u l=300000u
X120 a_6961_n8094# A[3] a_6725_n7362# VSS sky130_fd_pr__nfet_01v8 ad=5.8e+11p pd=4.58e+06u as=5.8e+11p ps=4.58e+06u w=2e+06u l=300000u
X121 VDD B[5] a_11156_n7386# VDD sky130_fd_pr__pfet_01v8 ad=0p pd=0u as=5.8e+11p ps=5.16e+06u w=1e+06u l=300000u
X122 a_7422_n3722# a_4657_n7364# a_7073_n3722# VDD sky130_fd_pr__pfet_01v8 ad=2.32e+12p pd=1.832e+07u as=4.06e+12p ps=3.206e+07u w=2e+06u l=300000u
X123 a_20290_411# a_19230_3112# VSS VSS sky130_fd_pr__nfet_01v8 ad=5.8e+11p pd=4.58e+06u as=0p ps=0u w=2e+06u l=300000u
X124 a_3843_3262# a_3253_3699# VDD VDD sky130_fd_pr__pfet_01v8 ad=5.8e+11p pd=5.16e+06u as=0p ps=0u w=1e+06u l=300000u
X125 a_14999_n7360# a_14454_n6667# a_14881_n7360# VDD sky130_fd_pr__pfet_01v8 ad=0p pd=0u as=0p ps=0u w=2e+06u l=300000u
X126 VSS opcode[0] a_238_n3726# VSS sky130_fd_pr__nfet_01v8 ad=0p pd=0u as=2.9e+11p ps=2.58e+06u w=1e+06u l=300000u
X127 VDD a_13369_1714# a_13429_1740# VDD sky130_fd_pr__pfet_01v8 ad=0p pd=0u as=0p ps=0u w=2e+06u l=300000u
X128 a_19635_n3748# A[6] VDD VDD sky130_fd_pr__pfet_01v8 ad=0p pd=0u as=0p ps=0u w=1e+06u l=300000u
X129 a_12931_n8094# a_13225_n7388# VSS VSS sky130_fd_pr__nfet_01v8 ad=1.16e+12p pd=9.16e+06u as=0p ps=0u w=2e+06u l=300000u
X130 a_7083_n990# a_7957_n1475# a_7432_n990# VDD sky130_fd_pr__pfet_01v8 ad=0p pd=0u as=2.32e+12p ps=1.832e+07u w=2e+06u l=300000u
X131 a_737_n3752# A[0] VDD VDD sky130_fd_pr__pfet_01v8 ad=5.8e+11p pd=5.16e+06u as=0p ps=0u w=1e+06u l=300000u
X132 VSS opcode[1] a_19146_n990# VSS sky130_fd_pr__nfet_01v8 ad=0p pd=0u as=2.9e+11p ps=2.58e+06u w=1e+06u l=300000u
X133 a_520_n7364# a_814_n7390# a_402_n7364# VDD sky130_fd_pr__pfet_01v8 ad=0p pd=0u as=0p ps=0u w=2e+06u l=300000u
X134 a_12070_3694# A[0] a_11952_3694# VDD sky130_fd_pr__pfet_01v8 ad=1.74e+12p pd=1.374e+07u as=1.16e+12p ps=9.16e+06u w=2e+06u l=300000u
X135 a_11156_n7386# B[5] VDD VDD sky130_fd_pr__pfet_01v8 ad=0p pd=0u as=0p ps=0u w=1e+06u l=300000u
X136 a_7073_n3722# a_4657_n7364# a_7422_n3722# VDD sky130_fd_pr__pfet_01v8 ad=0p pd=0u as=0p ps=0u w=2e+06u l=300000u
X137 a_7083_1744# a_3843_3262# a_7432_1744# VDD sky130_fd_pr__pfet_01v8 ad=0p pd=0u as=2.32e+12p ps=1.832e+07u w=2e+06u l=300000u
X138 VDD a_13369_n1020# a_13429_n994# VDD sky130_fd_pr__pfet_01v8 ad=0p pd=0u as=0p ps=0u w=2e+06u l=300000u
X139 a_13419_n3726# opcode[0] VDD VDD sky130_fd_pr__pfet_01v8 ad=4.06e+12p pd=3.206e+07u as=0p ps=0u w=2e+06u l=300000u
X140 a_897_3260# a_307_3697# VDD VDD sky130_fd_pr__pfet_01v8 ad=5.8e+11p pd=5.16e+06u as=0p ps=0u w=1e+06u l=300000u
X141 a_4701_3699# A[3] VDD VDD sky130_fd_pr__pfet_01v8 ad=8.7e+11p pd=7.74e+06u as=0p ps=0u w=1e+06u l=300000u
X142 VSS opcode[1] a_9668_n990# VSS sky130_fd_pr__nfet_01v8 ad=0p pd=0u as=2.9e+11p ps=2.58e+06u w=1e+06u l=300000u
X143 a_14881_n7360# a_15293_n7386# a_14999_n7360# VDD sky130_fd_pr__pfet_01v8 ad=0p pd=0u as=0p ps=0u w=2e+06u l=300000u
X144 a_19645_n1016# a_20044_n3722# VDD VDD sky130_fd_pr__pfet_01v8 ad=5.8e+11p pd=5.16e+06u as=0p ps=0u w=1e+06u l=300000u
X145 VSS opcode[0] a_22290_1744# VSS sky130_fd_pr__nfet_01v8 ad=0p pd=0u as=2.9e+11p ps=2.58e+06u w=1e+06u l=300000u
X146 Y[0] a_1156_n994# VSS VSS sky130_fd_pr__nfet_01v8 ad=2.9e+11p pd=2.58e+06u as=0p ps=0u w=1e+06u l=300000u
X147 a_2588_n7362# a_2043_n6669# a_2470_n7362# VDD sky130_fd_pr__pfet_01v8 ad=1.74e+12p pd=1.374e+07u as=0p ps=0u w=2e+06u l=300000u
X148 a_19695_n3722# a_19136_n3722# a_20044_n3722# VDD sky130_fd_pr__pfet_01v8 ad=4.06e+12p pd=3.206e+07u as=2.32e+12p ps=1.832e+07u w=2e+06u l=300000u
X149 a_6811_3260# a_6221_3697# VDD VDD sky130_fd_pr__pfet_01v8 ad=5.8e+11p pd=5.16e+06u as=0p ps=0u w=1e+06u l=300000u
X150 a_20252_3694# A[7] a_20134_3694# VDD sky130_fd_pr__pfet_01v8 ad=0p pd=0u as=1.16e+12p ps=9.16e+06u w=2e+06u l=300000u
X151 a_23188_n3722# a_14999_n7360# a_22839_n3722# VDD sky130_fd_pr__pfet_01v8 ad=2.32e+12p pd=1.832e+07u as=0p ps=0u w=2e+06u l=300000u
X152 VDD A[6] a_12813_n7362# VDD sky130_fd_pr__pfet_01v8 ad=0p pd=0u as=0p ps=0u w=2e+06u l=300000u
X153 VDD A[0] a_737_n3752# VDD sky130_fd_pr__pfet_01v8 ad=0p pd=0u as=0p ps=0u w=1e+06u l=300000u
X154 a_6607_n7362# A[3] VDD VDD sky130_fd_pr__pfet_01v8 ad=4.06e+12p pd=3.206e+07u as=0p ps=0u w=2e+06u l=300000u
X155 VSS B[1] a_13120_3694# VSS sky130_fd_pr__nfet_01v8 ad=0p pd=0u as=2.9e+11p ps=2.58e+06u w=1e+06u l=300000u
X156 a_19705_n990# a_19645_n1016# VDD VDD sky130_fd_pr__pfet_01v8 ad=4.06e+12p pd=3.206e+07u as=0p ps=0u w=2e+06u l=300000u
X157 a_7422_n3722# a_4657_n7364# a_7073_n3722# VDD sky130_fd_pr__pfet_01v8 ad=0p pd=0u as=0p ps=0u w=2e+06u l=300000u
X158 Y[3] a_10576_n990# VSS VSS sky130_fd_pr__nfet_01v8 ad=2.9e+11p pd=2.58e+06u as=0p ps=0u w=1e+06u l=300000u
X159 a_19705_1744# a_19230_3112# VDD VDD sky130_fd_pr__pfet_01v8 ad=4.06e+12p pd=3.206e+07u as=0p ps=0u w=2e+06u l=300000u
X160 a_2470_n7362# a_2043_n6669# a_2588_n7362# VDD sky130_fd_pr__pfet_01v8 ad=0p pd=0u as=0p ps=0u w=2e+06u l=300000u
X161 a_20044_n3722# a_19136_n3722# a_19695_n3722# VDD sky130_fd_pr__pfet_01v8 ad=0p pd=0u as=0p ps=0u w=2e+06u l=300000u
X162 a_22839_n3722# a_14999_n7360# a_23188_n3722# VDD sky130_fd_pr__pfet_01v8 ad=0p pd=0u as=0p ps=0u w=2e+06u l=300000u
X163 a_11101_n1475# a_10576_1744# VSS VSS sky130_fd_pr__nfet_01v8 ad=2.9e+11p pd=2.58e+06u as=0p ps=0u w=1e+06u l=300000u
X164 a_10227_n990# a_10167_n1016# VDD VDD sky130_fd_pr__pfet_01v8 ad=0p pd=0u as=0p ps=0u w=2e+06u l=300000u
X165 VSS A[3] a_6180_n6669# VSS sky130_fd_pr__nfet_01v8 ad=0p pd=0u as=2.9e+11p ps=2.58e+06u w=1e+06u l=300000u
X166 a_12813_n7362# A[6] VDD VDD sky130_fd_pr__pfet_01v8 ad=0p pd=0u as=0p ps=0u w=2e+06u l=300000u
X167 a_13778_1740# a_6811_3260# a_13429_1740# VDD sky130_fd_pr__pfet_01v8 ad=2.32e+12p pd=1.832e+07u as=0p ps=0u w=2e+06u l=300000u
X168 VDD opcode[1] a_6524_n990# VDD sky130_fd_pr__pfet_01v8 ad=0p pd=0u as=5.8e+11p ps=5.16e+06u w=1e+06u l=300000u
X169 VDD a_7422_n3722# a_7023_n1016# VDD sky130_fd_pr__pfet_01v8 ad=0p pd=0u as=5.8e+11p ps=5.16e+06u w=1e+06u l=300000u
X170 a_10227_1744# a_10167_1718# VDD VDD sky130_fd_pr__pfet_01v8 ad=0p pd=0u as=0p ps=0u w=2e+06u l=300000u
X171 a_11205_3262# a_10615_3699# VDD VDD sky130_fd_pr__pfet_01v8 ad=5.8e+11p pd=5.16e+06u as=0p ps=0u w=1e+06u l=300000u
X172 a_807_1740# opcode[0] VDD VDD sky130_fd_pr__pfet_01v8 ad=0p pd=0u as=0p ps=0u w=2e+06u l=300000u
X173 VDD opcode[0] a_6524_1744# VDD sky130_fd_pr__pfet_01v8 ad=0p pd=0u as=5.8e+11p ps=5.16e+06u w=1e+06u l=300000u
X174 VDD A[3] a_6607_n7362# VDD sky130_fd_pr__pfet_01v8 ad=0p pd=0u as=0p ps=0u w=2e+06u l=300000u
X175 a_16922_1740# a_16014_1740# a_16573_1740# VDD sky130_fd_pr__pfet_01v8 ad=2.32e+12p pd=1.832e+07u as=4.06e+12p ps=3.206e+07u w=2e+06u l=300000u
X176 a_13778_n994# a_14303_n1479# a_13429_n994# VDD sky130_fd_pr__pfet_01v8 ad=2.32e+12p pd=1.832e+07u as=0p ps=0u w=2e+06u l=300000u
X177 a_20054_n990# a_20579_n1475# a_19705_n990# VDD sky130_fd_pr__pfet_01v8 ad=2.32e+12p pd=1.832e+07u as=0p ps=0u w=2e+06u l=300000u
X178 a_16922_1740# a_8259_3260# a_16573_1740# VDD sky130_fd_pr__pfet_01v8 ad=0p pd=0u as=0p ps=0u w=2e+06u l=300000u
X179 a_20054_1744# a_9757_3262# a_19705_1744# VDD sky130_fd_pr__pfet_01v8 ad=2.32e+12p pd=1.832e+07u as=0p ps=0u w=2e+06u l=300000u
X180 a_16912_n3726# a_10862_n7360# a_16563_n3726# VDD sky130_fd_pr__pfet_01v8 ad=2.32e+12p pd=1.832e+07u as=4.06e+12p ps=3.206e+07u w=2e+06u l=300000u
X181 VDD B[5] a_17916_3694# VDD sky130_fd_pr__pfet_01v8 ad=0p pd=0u as=0p ps=0u w=2e+06u l=300000u
X182 a_807_n994# opcode[1] VDD VDD sky130_fd_pr__pfet_01v8 ad=0p pd=0u as=0p ps=0u w=2e+06u l=300000u
X183 a_8259_3260# a_7669_3697# VDD VDD sky130_fd_pr__pfet_01v8 ad=5.8e+11p pd=5.16e+06u as=0p ps=0u w=1e+06u l=300000u
X184 a_8794_n8094# a_9088_n7388# VSS VSS sky130_fd_pr__nfet_01v8 ad=1.16e+12p pd=9.16e+06u as=0p ps=0u w=2e+06u l=300000u
X185 a_14999_n7360# a_14454_n6667# a_14881_n7360# VDD sky130_fd_pr__pfet_01v8 ad=0p pd=0u as=0p ps=0u w=2e+06u l=300000u
X186 a_2588_n7362# a_2043_n6669# a_2470_n7362# VDD sky130_fd_pr__pfet_01v8 ad=0p pd=0u as=0p ps=0u w=2e+06u l=300000u
X187 VSS opcode[0] a_248_1740# VSS sky130_fd_pr__nfet_01v8 ad=0p pd=0u as=2.9e+11p ps=2.58e+06u w=1e+06u l=300000u
X188 a_16922_n994# a_16014_n994# a_16573_n994# VDD sky130_fd_pr__pfet_01v8 ad=2.32e+12p pd=1.832e+07u as=4.06e+12p ps=3.206e+07u w=2e+06u l=300000u
X189 a_23198_n990# a_23723_n1475# a_22849_n990# VDD sky130_fd_pr__pfet_01v8 ad=0p pd=0u as=0p ps=0u w=2e+06u l=300000u
X190 a_10862_n7360# a_10317_n6667# a_10744_n7360# VDD sky130_fd_pr__pfet_01v8 ad=1.74e+12p pd=1.374e+07u as=4.06e+12p ps=3.206e+07u w=2e+06u l=300000u
X191 VDD B[6] a_12813_n7362# VDD sky130_fd_pr__pfet_01v8 ad=0p pd=0u as=0p ps=0u w=2e+06u l=300000u
X192 a_16922_n994# a_17447_n1479# a_16573_n994# VDD sky130_fd_pr__pfet_01v8 ad=0p pd=0u as=0p ps=0u w=2e+06u l=300000u
X193 a_19084_3696# A[6] a_18966_3696# VDD sky130_fd_pr__pfet_01v8 ad=1.74e+12p pd=1.374e+07u as=1.16e+12p ps=9.16e+06u w=2e+06u l=300000u
X194 a_7073_n3722# a_6514_n3722# a_7422_n3722# VDD sky130_fd_pr__pfet_01v8 ad=0p pd=0u as=0p ps=0u w=2e+06u l=300000u
X195 a_23198_1744# a_11205_3262# a_22849_1744# VDD sky130_fd_pr__pfet_01v8 ad=0p pd=0u as=0p ps=0u w=2e+06u l=300000u
X196 a_1392_n2327# a_747_n1020# VSS VSS sky130_fd_pr__nfet_01v8 ad=5.8e+11p pd=4.58e+06u as=0p ps=0u w=2e+06u l=300000u
X197 a_4825_n1479# a_4300_1740# VDD VDD sky130_fd_pr__pfet_01v8 ad=5.8e+11p pd=5.16e+06u as=0p ps=0u w=1e+06u l=300000u
X198 VDD a_16912_n3726# a_16513_n1020# VDD sky130_fd_pr__pfet_01v8 ad=0p pd=0u as=5.8e+11p ps=5.16e+06u w=1e+06u l=300000u
X199 a_10576_n990# a_9668_n990# a_10227_n990# VDD sky130_fd_pr__pfet_01v8 ad=2.32e+12p pd=1.832e+07u as=0p ps=0u w=2e+06u l=300000u
X200 Y[2] a_7432_n990# VSS VSS sky130_fd_pr__nfet_01v8 ad=2.9e+11p pd=2.58e+06u as=0p ps=0u w=1e+06u l=300000u
X201 a_10576_1744# a_9668_1744# a_10227_1744# VDD sky130_fd_pr__pfet_01v8 ad=2.32e+12p pd=1.832e+07u as=0p ps=0u w=2e+06u l=300000u
X202 a_17447_n1479# a_16922_1740# VSS VSS sky130_fd_pr__nfet_01v8 ad=2.9e+11p pd=2.58e+06u as=0p ps=0u w=1e+06u l=300000u
X203 VDD a_18966_3696# a_19230_3112# VDD sky130_fd_pr__pfet_01v8 ad=0p pd=0u as=5.8e+11p ps=5.16e+06u w=1e+06u l=300000u
X204 VDD opcode[1] a_7083_n990# VDD sky130_fd_pr__pfet_01v8 ad=0p pd=0u as=0p ps=0u w=2e+06u l=300000u
X205 a_10227_n990# a_11101_n1475# a_10576_n990# VDD sky130_fd_pr__pfet_01v8 ad=0p pd=0u as=0p ps=0u w=2e+06u l=300000u
X206 Y[1] a_4300_n994# VDD VDD sky130_fd_pr__pfet_01v8 ad=5.8e+11p pd=5.16e+06u as=0p ps=0u w=1e+06u l=300000u
X207 a_2470_n7362# a_2882_n7388# a_2588_n7362# VDD sky130_fd_pr__pfet_01v8 ad=0p pd=0u as=0p ps=0u w=2e+06u l=300000u
X208 a_7422_n3722# opcode[0] a_7658_n5055# VSS sky130_fd_pr__nfet_01v8 ad=5.8e+11p pd=4.58e+06u as=5.8e+11p ps=4.58e+06u w=2e+06u l=300000u
X209 a_16513_1714# a_17798_3694# VSS VSS sky130_fd_pr__nfet_01v8 ad=2.9e+11p pd=2.58e+06u as=0p ps=0u w=1e+06u l=300000u
X210 VDD opcode[0] a_7083_1744# VDD sky130_fd_pr__pfet_01v8 ad=0p pd=0u as=0p ps=0u w=2e+06u l=300000u
X211 a_10227_1744# a_5291_3262# a_10576_1744# VDD sky130_fd_pr__pfet_01v8 ad=0p pd=0u as=0p ps=0u w=2e+06u l=300000u
X212 VDD A[7] a_14454_n6667# VDD sky130_fd_pr__pfet_01v8 ad=0p pd=0u as=5.8e+11p ps=5.16e+06u w=1e+06u l=300000u
X213 a_1755_3697# A[1] VDD VDD sky130_fd_pr__pfet_01v8 ad=0p pd=0u as=0p ps=0u w=1e+06u l=300000u
X214 a_10744_n7360# a_10317_n6667# a_10862_n7360# VDD sky130_fd_pr__pfet_01v8 ad=0p pd=0u as=0p ps=0u w=2e+06u l=300000u
X215 VDD A[5] a_10317_n6667# VDD sky130_fd_pr__pfet_01v8 ad=0p pd=0u as=5.8e+11p ps=5.16e+06u w=1e+06u l=300000u
X216 a_12070_3694# A[0] a_11952_3694# VDD sky130_fd_pr__pfet_01v8 ad=0p pd=0u as=0p ps=0u w=2e+06u l=300000u
X217 a_797_n3726# a_520_n7364# a_1146_n3726# VDD sky130_fd_pr__pfet_01v8 ad=4.06e+12p pd=3.206e+07u as=2.32e+12p ps=1.832e+07u w=2e+06u l=300000u
X218 a_10157_n3748# A[3] VDD VDD sky130_fd_pr__pfet_01v8 ad=5.8e+11p pd=5.16e+06u as=0p ps=0u w=1e+06u l=300000u
X219 a_814_n7390# B[0] VSS VSS sky130_fd_pr__nfet_01v8 ad=2.9e+11p pd=2.58e+06u as=0p ps=0u w=1e+06u l=300000u
X220 VSS opcode[0] a_16014_1740# VSS sky130_fd_pr__nfet_01v8 ad=0p pd=0u as=2.9e+11p ps=2.58e+06u w=1e+06u l=300000u
X221 a_1156_n994# opcode[1] a_1392_n2327# VSS sky130_fd_pr__nfet_01v8 ad=5.8e+11p pd=4.58e+06u as=0p ps=0u w=2e+06u l=300000u
X222 a_4701_3699# A[3] VDD VDD sky130_fd_pr__pfet_01v8 ad=0p pd=0u as=0p ps=0u w=1e+06u l=300000u
X223 VDD opcode[0] a_12870_1740# VDD sky130_fd_pr__pfet_01v8 ad=0p pd=0u as=5.8e+11p ps=5.16e+06u w=1e+06u l=300000u
X224 a_23424_n5055# a_21997_n6357# VSS VSS sky130_fd_pr__nfet_01v8 ad=5.8e+11p pd=4.58e+06u as=0p ps=0u w=2e+06u l=300000u
X225 VDD opcode[0] a_22839_n3722# VDD sky130_fd_pr__pfet_01v8 ad=0p pd=0u as=0p ps=0u w=2e+06u l=300000u
X226 VSS B[3] a_4938_3062# VSS sky130_fd_pr__nfet_01v8 ad=0p pd=0u as=5.8e+11p ps=4.58e+06u w=2e+06u l=300000u
X227 a_7013_n3748# A[2] VDD VDD sky130_fd_pr__pfet_01v8 ad=5.8e+11p pd=5.16e+06u as=0p ps=0u w=1e+06u l=300000u
X228 a_13768_n3726# opcode[0] a_14004_n5059# VSS sky130_fd_pr__nfet_01v8 ad=5.8e+11p pd=4.58e+06u as=5.8e+11p ps=4.58e+06u w=2e+06u l=300000u
X229 VDD a_16630_3696# a_13369_1714# VDD sky130_fd_pr__pfet_01v8 ad=0p pd=0u as=5.8e+11p ps=5.16e+06u w=1e+06u l=300000u
X230 a_8676_n7362# A[4] VDD VDD sky130_fd_pr__pfet_01v8 ad=4.06e+12p pd=3.206e+07u as=0p ps=0u w=2e+06u l=300000u
X231 VDD A[6] a_9167_3699# VDD sky130_fd_pr__pfet_01v8 ad=0p pd=0u as=8.7e+11p ps=7.74e+06u w=1e+06u l=300000u
X232 VDD opcode[1] a_12870_n994# VDD sky130_fd_pr__pfet_01v8 ad=0p pd=0u as=5.8e+11p ps=5.16e+06u w=1e+06u l=300000u
X233 a_7894_n5055# a_6514_n3722# a_7422_n3722# VSS sky130_fd_pr__nfet_01v8 ad=5.8e+11p pd=4.58e+06u as=0p ps=0u w=2e+06u l=300000u
X234 a_10217_n3722# a_10157_n3748# VDD VDD sky130_fd_pr__pfet_01v8 ad=0p pd=0u as=0p ps=0u w=2e+06u l=300000u
X235 a_9404_3062# A[6] a_9167_3699# VSS sky130_fd_pr__nfet_01v8 ad=5.8e+11p pd=4.58e+06u as=5.8e+11p ps=4.58e+06u w=2e+06u l=300000u
X236 VDD opcode[0] a_16014_1740# VDD sky130_fd_pr__pfet_01v8 ad=0p pd=0u as=0p ps=0u w=1e+06u l=300000u
X237 a_21997_n6357# A[7] VSS VSS sky130_fd_pr__nfet_01v8 ad=2.9e+11p pd=2.58e+06u as=0p ps=0u w=1e+06u l=300000u
X238 a_16912_n3726# opcode[0] a_17148_n5059# VSS sky130_fd_pr__nfet_01v8 ad=5.8e+11p pd=4.58e+06u as=5.8e+11p ps=4.58e+06u w=2e+06u l=300000u
X239 a_1146_n3726# a_520_n7364# a_797_n3726# VDD sky130_fd_pr__pfet_01v8 ad=0p pd=0u as=0p ps=0u w=2e+06u l=300000u
X240 a_14999_n7360# a_14454_n6667# a_14999_n8092# VSS sky130_fd_pr__nfet_01v8 ad=5.8e+11p pd=4.58e+06u as=1.16e+12p ps=9.16e+06u w=2e+06u l=300000u
X241 a_12813_n7362# A[6] VDD VDD sky130_fd_pr__pfet_01v8 ad=0p pd=0u as=0p ps=0u w=2e+06u l=300000u
X242 VSS B[2] a_14288_3692# VSS sky130_fd_pr__nfet_01v8 ad=0p pd=0u as=2.9e+11p ps=2.58e+06u w=1e+06u l=300000u
X243 VSS a_2345_3260# a_4772_407# VSS sky130_fd_pr__nfet_01v8 ad=0p pd=0u as=5.8e+11p ps=4.58e+06u w=2e+06u l=300000u
X244 a_13768_n3726# a_8794_n7362# a_13419_n3726# VDD sky130_fd_pr__pfet_01v8 ad=2.32e+12p pd=1.832e+07u as=0p ps=0u w=2e+06u l=300000u
X245 a_12931_n7362# a_12386_n6669# a_12813_n7362# VDD sky130_fd_pr__pfet_01v8 ad=0p pd=0u as=0p ps=0u w=2e+06u l=300000u
X246 a_23188_n3722# opcode[0] a_23424_n5055# VSS sky130_fd_pr__nfet_01v8 ad=5.8e+11p pd=4.58e+06u as=0p ps=0u w=2e+06u l=300000u
X247 VDD opcode[1] a_16014_n994# VDD sky130_fd_pr__pfet_01v8 ad=0p pd=0u as=0p ps=0u w=1e+06u l=300000u
X248 a_13359_n3752# A[4] VSS VSS sky130_fd_pr__nfet_01v8 ad=2.9e+11p pd=2.58e+06u as=0p ps=0u w=1e+06u l=300000u
X249 VDD a_14288_3692# a_7023_1718# VDD sky130_fd_pr__pfet_01v8 ad=0p pd=0u as=5.8e+11p ps=5.16e+06u w=1e+06u l=300000u