* NGSPICE file created from logic_unit_pex.ext - technology: sky130B

.subckt logic_unit B[0] B[1] B[2] B[3] B[4] B[5] B[6] B[7] Y[0] Y[1] Y[2] Y[3]
+ Y[4] Y[5] Y[6] Y[7] VDD VSS opcode[0] opcode[1] A[0] A[1] A[2] A[3] A[4] A[5] A[6] A[7]
X0 VDD.t548 B[7].t0 a_20252_3694.t1 VDD.t547 sky130_fd_pr__pfet_01v8 ad=0p pd=0u as=0p ps=0u w=2e+06u l=300000u
X1 VDD.t1054 a_3891_1714.t4 a_3951_1740.t5 VDD.t1053 sky130_fd_pr__pfet_01v8 ad=0p pd=0u as=0p ps=0u w=2e+06u l=300000u
X2 a_3881_n3752.t3 A[1].t0 VDD.t739 VDD.t738 sky130_fd_pr__pfet_01v8 ad=0p pd=0u as=0p ps=0u w=1e+06u l=300000u
X3 VSS.t154 A[0].t0 a_n25_n6671.t3 VSS sky130_fd_pr__nfet_01v8 ad=0p pd=0u as=0p ps=0u w=1e+06u l=300000u
X4 VDD.t326 A[7].t0 a_10615_3699.t2 VDD.t325 sky130_fd_pr__pfet_01v8 ad=0p pd=0u as=0p ps=0u w=1e+06u l=300000u
X5 VDD.t714 opcode[0].t0 a_3392_1740.t2 VDD.t713 sky130_fd_pr__pfet_01v8 ad=0p pd=0u as=0p ps=0u w=1e+06u l=300000u
X6 a_12813_n7362.t11 a_12386_n6669.t4 a_12931_n7362.t7 VDD.t278 sky130_fd_pr__pfet_01v8 ad=0p pd=0u as=0p ps=0u w=2e+06u l=300000u
X7 a_3891_n1020.t2 a_4290_n3726.t8 VDD.t900 VDD.t899 sky130_fd_pr__pfet_01v8 ad=0p pd=0u as=0p ps=0u w=1e+06u l=300000u
X8 VDD.t546 B[7].t1 a_14881_n7360.t9 VDD.t545 sky130_fd_pr__pfet_01v8 ad=0p pd=0u as=0p ps=0u w=2e+06u l=300000u
X9 a_10852_3062.t0 A[7].t1 a_10615_3699.t3 VSS sky130_fd_pr__nfet_01v8 ad=0p pd=0u as=0p ps=0u w=2e+06u l=300000u
X10 VDD.t1216 a_3891_n1020.t4 a_3951_n994.t10 VDD.t1215 sky130_fd_pr__pfet_01v8 ad=0p pd=0u as=0p ps=0u w=2e+06u l=300000u
X11 a_20054_n990.t0 opcode[1].t0 a_20290_n2323.t0 VSS sky130_fd_pr__nfet_01v8 ad=0p pd=0u as=0p ps=0u w=2e+06u l=300000u
X12 a_4290_n3726.t6 a_2588_n7362.t8 a_3941_n3726.t8 VDD.t678 sky130_fd_pr__pfet_01v8 ad=0p pd=0u as=0p ps=0u w=2e+06u l=300000u
X13 VDD.t763 a_747_1714.t4 a_807_1740.t11 VDD.t762 sky130_fd_pr__pfet_01v8 ad=0p pd=0u as=0p ps=0u w=2e+06u l=300000u
X14 a_10217_n3722.t3 a_6725_n7362.t8 a_10566_n3722.t3 VDD.t404 sky130_fd_pr__pfet_01v8 ad=0p pd=0u as=0p ps=0u w=2e+06u l=300000u
X15 VDD.t1059 opcode[1].t1 a_3392_n994.t2 VDD.t1058 sky130_fd_pr__pfet_01v8 ad=0p pd=0u as=0p ps=0u w=1e+06u l=300000u
X16 a_21997_n6357.t2 A[7].t2 VDD.t44 VDD.t43 sky130_fd_pr__pfet_01v8 ad=0p pd=0u as=0p ps=0u w=1e+06u l=300000u
X17 a_17916_3694.t5 A[5].t0 a_17798_3694.t1 VDD.t1036 sky130_fd_pr__pfet_01v8 ad=0p pd=0u as=0p ps=0u w=2e+06u l=300000u
X18 a_7083_n990.t9 a_7023_n1016.t4 VDD.t414 VDD.t413 sky130_fd_pr__pfet_01v8 ad=0p pd=0u as=0p ps=0u w=2e+06u l=300000u
X19 a_10576_n990.t0 opcode[1].t2 a_10812_n2323.t0 VSS sky130_fd_pr__nfet_01v8 ad=0p pd=0u as=0p ps=0u w=2e+06u l=300000u
X20 VDD.t902 A[5].t1 a_7669_3697.t3 VDD.t901 sky130_fd_pr__pfet_01v8 ad=0p pd=0u as=0p ps=0u w=1e+06u l=300000u
X21 a_2588_n7362.t4 a_2043_n6669.t4 a_2588_n8094.t0 VSS sky130_fd_pr__nfet_01v8 ad=0p pd=0u as=0p ps=0u w=2e+06u l=300000u
X22 VSS.t123 a_6725_n7362.t9 a_11038_n5055.t0 VSS sky130_fd_pr__nfet_01v8 ad=0p pd=0u as=0p ps=0u w=2e+06u l=300000u
X23 a_7906_3060.t0 A[5].t2 a_7669_3697.t0 VSS sky130_fd_pr__nfet_01v8 ad=0p pd=0u as=0p ps=0u w=2e+06u l=300000u
X24 a_7083_1744.t6 a_7023_1718.t4 VDD.t1074 VDD.t1073 sky130_fd_pr__pfet_01v8 ad=0p pd=0u as=0p ps=0u w=2e+06u l=300000u
X25 VDD.t151 A[1].t1 a_3881_n3752.t2 VDD.t150 sky130_fd_pr__pfet_01v8 ad=0p pd=0u as=0p ps=0u w=1e+06u l=300000u
X26 VDD.t191 a_747_n1020.t4 a_807_n994.t11 VDD.t190 sky130_fd_pr__pfet_01v8 ad=0p pd=0u as=0p ps=0u w=2e+06u l=300000u
X27 Y[6].t2 a_20054_n990.t8 VDD.t403 VDD.t402 sky130_fd_pr__pfet_01v8 ad=0p pd=0u as=0p ps=0u w=1e+06u l=300000u
X28 VDD.t166 a_10566_n3722.t8 a_10167_n1016.t2 VDD.t165 sky130_fd_pr__pfet_01v8 ad=0p pd=0u as=0p ps=0u w=1e+06u l=300000u
X29 VDD.t410 a_4290_n3726.t9 a_3891_n1020.t1 VDD.t409 sky130_fd_pr__pfet_01v8 ad=0p pd=0u as=0p ps=0u w=1e+06u l=300000u
X30 a_747_1714.t1 a_11952_3694.t5 VSS.t137 VSS sky130_fd_pr__nfet_01v8 ad=0p pd=0u as=0p ps=0u w=1e+06u l=300000u
X31 a_3951_1740.t6 a_3392_1740.t4 a_4300_1740.t4 VDD.t291 sky130_fd_pr__pfet_01v8 ad=0p pd=0u as=0p ps=0u w=2e+06u l=300000u
X32 a_20579_n1475.t2 a_20054_1744.t8 VDD.t1048 VDD.t1047 sky130_fd_pr__pfet_01v8 ad=0p pd=0u as=0p ps=0u w=1e+06u l=300000u
X33 a_15293_n7386.t2 B[7].t2 VDD.t544 VDD.t543 sky130_fd_pr__pfet_01v8 ad=0p pd=0u as=0p ps=0u w=1e+06u l=300000u
X34 a_1382_n5059.t1 a_737_n3752.t4 VSS.t41 VSS sky130_fd_pr__nfet_01v8 ad=0p pd=0u as=0p ps=0u w=2e+06u l=300000u
X35 a_1156_1740.t5 a_897_3260.t4 a_807_1740.t4 VDD.t505 sky130_fd_pr__pfet_01v8 ad=0p pd=0u as=0p ps=0u w=2e+06u l=300000u
X36 a_20526_n2323.t0 a_19146_n990.t4 a_20054_n990.t1 VSS sky130_fd_pr__nfet_01v8 ad=0p pd=0u as=0p ps=0u w=2e+06u l=300000u
X37 VSS.t75 B[7].t3 a_20134_3694.t4 VSS sky130_fd_pr__nfet_01v8 ad=0p pd=0u as=0p ps=0u w=1e+06u l=300000u
X38 a_10566_n3722.t2 a_6725_n7362.t10 a_10217_n3722.t2 VDD.t895 sky130_fd_pr__pfet_01v8 ad=0p pd=0u as=0p ps=0u w=2e+06u l=300000u
X39 a_9668_n990.t2 opcode[1].t3 VDD.t1061 VDD.t1060 sky130_fd_pr__pfet_01v8 ad=0p pd=0u as=0p ps=0u w=1e+06u l=300000u
X40 VSS.t144 opcode[1].t4 a_3392_n994.t3 VSS sky130_fd_pr__nfet_01v8 ad=0p pd=0u as=0p ps=0u w=1e+06u l=300000u
X41 a_4951_n7390.t2 B[2].t0 VDD.t21 VDD.t20 sky130_fd_pr__pfet_01v8 ad=0p pd=0u as=0p ps=0u w=1e+06u l=300000u
X42 a_3951_n994.t6 a_3392_n994.t4 a_4300_n994.t3 VDD.t457 sky130_fd_pr__pfet_01v8 ad=0p pd=0u as=0p ps=0u w=2e+06u l=300000u
X43 a_22839_n3722.t7 a_21997_n6357.t4 VDD.t1031 VDD.t1030 sky130_fd_pr__pfet_01v8 ad=0p pd=0u as=0p ps=0u w=2e+06u l=300000u
X44 a_9668_1744.t2 opcode[0].t1 VDD.t1148 VDD.t1147 sky130_fd_pr__pfet_01v8 ad=0p pd=0u as=0p ps=0u w=1e+06u l=300000u
X45 a_1156_n994.t5 a_1681_n1479.t4 a_807_n994.t6 VDD.t589 sky130_fd_pr__pfet_01v8 ad=0p pd=0u as=0p ps=0u w=2e+06u l=300000u
X46 a_2824_n8094.t0 A[1].t2 a_2588_n7362.t1 VSS sky130_fd_pr__nfet_01v8 ad=0p pd=0u as=0p ps=0u w=2e+06u l=300000u
X47 VDD.t592 B[4].t0 a_16748_3696.t3 VDD.t591 sky130_fd_pr__pfet_01v8 ad=0p pd=0u as=0p ps=0u w=2e+06u l=300000u
X48 VSS.t68 a_14303_n1479.t4 a_14250_n2327.t1 VSS sky130_fd_pr__nfet_01v8 ad=0p pd=0u as=0p ps=0u w=2e+06u l=300000u
X49 a_10167_n1016.t1 a_10566_n3722.t9 VDD.t168 VDD.t167 sky130_fd_pr__pfet_01v8 ad=0p pd=0u as=0p ps=0u w=1e+06u l=300000u
X50 a_3891_n1020.t0 a_4290_n3726.t10 VDD.t412 VDD.t411 sky130_fd_pr__pfet_01v8 ad=0p pd=0u as=0p ps=0u w=1e+06u l=300000u
X51 a_13369_1714.t3 a_16630_3696.t5 VSS.t125 VSS sky130_fd_pr__nfet_01v8 ad=0p pd=0u as=0p ps=0u w=1e+06u l=300000u
X52 a_1146_n3726.t1 opcode[0].t2 a_1382_n5059.t0 VSS sky130_fd_pr__nfet_01v8 ad=0p pd=0u as=0p ps=0u w=2e+06u l=300000u
X53 a_10227_n990.t2 opcode[1].t5 VDD.t1084 VDD.t1083 sky130_fd_pr__pfet_01v8 ad=0p pd=0u as=0p ps=0u w=2e+06u l=300000u
X54 VSS.t142 a_20579_n1475.t4 a_20526_n2323.t1 VSS sky130_fd_pr__nfet_01v8 ad=0p pd=0u as=0p ps=0u w=2e+06u l=300000u
X55 a_10227_1744.t5 opcode[0].t3 VDD.t1150 VDD.t1149 sky130_fd_pr__pfet_01v8 ad=0p pd=0u as=0p ps=0u w=2e+06u l=300000u
X56 Y[1].t3 a_4300_n994.t8 VSS.t165 VSS sky130_fd_pr__nfet_01v8 ad=0p pd=0u as=0p ps=0u w=1e+06u l=300000u
X57 a_15574_3694.t4 B[3].t0 VDD.t128 VDD.t127 sky130_fd_pr__pfet_01v8 ad=0p pd=0u as=0p ps=0u w=2e+06u l=300000u
X58 VDD.t495 a_7432_n990.t8 Y[2].t2 VDD.t494 sky130_fd_pr__pfet_01v8 ad=0p pd=0u as=0p ps=0u w=1e+06u l=300000u
X59 a_13238_3694.t2 A[1].t3 a_13120_3694.t0 VDD.t847 sky130_fd_pr__pfet_01v8 ad=0p pd=0u as=0p ps=0u w=2e+06u l=300000u
X60 VDD.t368 a_7432_1744.t8 a_7957_n1475.t2 VDD.t367 sky130_fd_pr__pfet_01v8 ad=0p pd=0u as=0p ps=0u w=1e+06u l=300000u
X61 VSS.t77 B[1].t0 a_2824_n8094.t1 VSS sky130_fd_pr__nfet_01v8 ad=0p pd=0u as=0p ps=0u w=2e+06u l=300000u
X62 VDD.t560 B[1].t1 a_1755_3697.t6 VDD.t559 sky130_fd_pr__pfet_01v8 ad=0p pd=0u as=0p ps=0u w=1e+06u l=300000u
X63 a_17158_n2327.t1 a_16513_n1020.t4 VSS.t27 VSS sky130_fd_pr__nfet_01v8 ad=0p pd=0u as=0p ps=0u w=2e+06u l=300000u
X64 VSS.t39 a_23723_n1475.t4 a_23670_n2323.t1 VSS sky130_fd_pr__nfet_01v8 ad=0p pd=0u as=0p ps=0u w=2e+06u l=300000u
X65 Y[2].t1 a_7432_n990.t9 VDD.t520 VDD.t519 sky130_fd_pr__pfet_01v8 ad=0p pd=0u as=0p ps=0u w=1e+06u l=300000u
X66 a_7957_n1475.t1 a_7432_1744.t9 VDD.t370 VDD.t369 sky130_fd_pr__pfet_01v8 ad=0p pd=0u as=0p ps=0u w=1e+06u l=300000u
X67 a_737_n3752.t3 A[0].t1 VSS.t153 VSS sky130_fd_pr__nfet_01v8 ad=0p pd=0u as=0p ps=0u w=1e+06u l=300000u
X68 VSS.t80 A[4].t0 a_8249_n6669.t3 VSS sky130_fd_pr__nfet_01v8 ad=0p pd=0u as=0p ps=0u w=1e+06u l=300000u
X69 a_6221_3697.t2 B[4].t1 VDD.t594 VDD.t593 sky130_fd_pr__pfet_01v8 ad=0p pd=0u as=0p ps=0u w=1e+06u l=300000u
X70 a_5291_3262.t2 a_4701_3699.t7 VDD.t99 VDD.t98 sky130_fd_pr__pfet_01v8 ad=0p pd=0u as=0p ps=0u w=1e+06u l=300000u
X71 a_15293_n7386.t3 B[7].t4 VSS.t74 VSS sky130_fd_pr__nfet_01v8 ad=0p pd=0u as=0p ps=0u w=1e+06u l=300000u
X72 a_2470_n7362.t6 A[1].t4 VDD.t140 VDD.t139 sky130_fd_pr__pfet_01v8 ad=0p pd=0u as=0p ps=0u w=2e+06u l=300000u
X73 a_9757_3262.t2 a_9167_3699.t7 VDD.t604 VDD.t603 sky130_fd_pr__pfet_01v8 ad=0p pd=0u as=0p ps=0u w=1e+06u l=300000u
X74 VSS.t15 B[3].t1 a_15456_3694.t3 VSS sky130_fd_pr__nfet_01v8 ad=0p pd=0u as=0p ps=0u w=1e+06u l=300000u
X75 VDD.t1086 opcode[1].t6 a_22290_n990.t2 VDD.t1085 sky130_fd_pr__pfet_01v8 ad=0p pd=0u as=0p ps=0u w=1e+06u l=300000u
X76 VDD.t364 a_13120_3694.t5 a_3891_1714.t0 VDD.t363 sky130_fd_pr__pfet_01v8 ad=0p pd=0u as=0p ps=0u w=1e+06u l=300000u
X77 VDD.t581 a_15456_3694.t5 a_10167_1718.t2 VDD.t580 sky130_fd_pr__pfet_01v8 ad=0p pd=0u as=0p ps=0u w=1e+06u l=300000u
X78 a_16014_1740.t2 opcode[0].t4 VDD.t240 VDD.t239 sky130_fd_pr__pfet_01v8 ad=0p pd=0u as=0p ps=0u w=1e+06u l=300000u
X79 a_21997_n6357.t1 A[7].t3 VDD.t46 VDD.t45 sky130_fd_pr__pfet_01v8 ad=0p pd=0u as=0p ps=0u w=1e+06u l=300000u
X80 a_4762_n5059.t1 a_3382_n3726.t4 a_4290_n3726.t4 VSS sky130_fd_pr__nfet_01v8 ad=0p pd=0u as=0p ps=0u w=2e+06u l=300000u
X81 VDD.t242 opcode[0].t5 a_22290_1744.t2 VDD.t241 sky130_fd_pr__pfet_01v8 ad=0p pd=0u as=0p ps=0u w=1e+06u l=300000u
X82 a_10227_n990.t5 a_10167_n1016.t4 VDD.t733 VDD.t732 sky130_fd_pr__pfet_01v8 ad=0p pd=0u as=0p ps=0u w=2e+06u l=300000u
X83 a_10227_1744.t8 a_10167_1718.t4 VDD.t586 VDD.t585 sky130_fd_pr__pfet_01v8 ad=0p pd=0u as=0p ps=0u w=2e+06u l=300000u
X84 a_16014_n994.t2 opcode[1].t7 VDD.t1078 VDD.t1077 sky130_fd_pr__pfet_01v8 ad=0p pd=0u as=0p ps=0u w=1e+06u l=300000u
X85 a_7013_n3748.t3 A[2].t0 VSS.t13 VSS sky130_fd_pr__nfet_01v8 ad=0p pd=0u as=0p ps=0u w=1e+06u l=300000u
X86 VDD.t244 opcode[0].t6 a_13429_1740.t2 VDD.t243 sky130_fd_pr__pfet_01v8 ad=0p pd=0u as=0p ps=0u w=2e+06u l=300000u
X87 a_7083_n990.t8 a_7023_n1016.t5 VDD.t416 VDD.t415 sky130_fd_pr__pfet_01v8 ad=0p pd=0u as=0p ps=0u w=2e+06u l=300000u
X88 a_13167_n8094.t1 A[6].t0 a_12931_n7362.t2 VSS sky130_fd_pr__nfet_01v8 ad=0p pd=0u as=0p ps=0u w=2e+06u l=300000u
X89 a_7083_1744.t5 a_7023_1718.t5 VDD.t1076 VDD.t1075 sky130_fd_pr__pfet_01v8 ad=0p pd=0u as=0p ps=0u w=2e+06u l=300000u
X90 VSS.t23 opcode[0].t7 a_16004_n3726.t3 VSS sky130_fd_pr__nfet_01v8 ad=0p pd=0u as=0p ps=0u w=1e+06u l=300000u
X91 VDD.t162 opcode[0].t8 a_16004_n3726.t2 VDD.t161 sky130_fd_pr__pfet_01v8 ad=0p pd=0u as=0p ps=0u w=1e+06u l=300000u
X92 Y[6].t1 a_20054_n990.t9 VDD.t673 VDD.t672 sky130_fd_pr__pfet_01v8 ad=0p pd=0u as=0p ps=0u w=1e+06u l=300000u
X93 a_807_1740.t7 a_248_1740.t4 a_1156_1740.t6 VDD.t937 sky130_fd_pr__pfet_01v8 ad=0p pd=0u as=0p ps=0u w=2e+06u l=300000u
X94 VDD.t628 a_13778_1740.t8 a_14303_n1479.t0 VDD.t627 sky130_fd_pr__pfet_01v8 ad=0p pd=0u as=0p ps=0u w=1e+06u l=300000u
X95 VSS.t150 a_8259_3260.t4 a_17394_407.t1 VSS sky130_fd_pr__nfet_01v8 ad=0p pd=0u as=0p ps=0u w=2e+06u l=300000u
X96 VDD.t1080 opcode[1].t8 a_13429_n994.t5 VDD.t1079 sky130_fd_pr__pfet_01v8 ad=0p pd=0u as=0p ps=0u w=2e+06u l=300000u
X97 VSS.t90 a_2588_n7362.t9 a_4762_n5059.t0 VSS sky130_fd_pr__nfet_01v8 ad=0p pd=0u as=0p ps=0u w=2e+06u l=300000u
X98 VDD.t164 opcode[0].t9 a_248_1740.t2 VDD.t163 sky130_fd_pr__pfet_01v8 ad=0p pd=0u as=0p ps=0u w=1e+06u l=300000u
X99 a_22849_n990.t6 a_22290_n990.t4 a_23198_n990.t3 VDD.t746 sky130_fd_pr__pfet_01v8 ad=0p pd=0u as=0p ps=0u w=2e+06u l=300000u
X100 a_14881_n7360.t0 a_14454_n6667.t4 a_14999_n7360.t6 VDD.t156 sky130_fd_pr__pfet_01v8 ad=0p pd=0u as=0p ps=0u w=2e+06u l=300000u
X101 a_11038_n5055.t1 a_9658_n3722.t4 a_10566_n3722.t7 VSS sky130_fd_pr__nfet_01v8 ad=0p pd=0u as=0p ps=0u w=2e+06u l=300000u
X102 a_20579_n1475.t1 a_20054_1744.t9 VDD.t1050 VDD.t1049 sky130_fd_pr__pfet_01v8 ad=0p pd=0u as=0p ps=0u w=1e+06u l=300000u
X103 a_4825_n1479.t3 a_4300_1740.t8 VSS.t24 VSS sky130_fd_pr__nfet_01v8 ad=0p pd=0u as=0p ps=0u w=1e+06u l=300000u
X104 VSS.t133 a_5291_3262.t4 a_11048_411.t1 VSS sky130_fd_pr__nfet_01v8 ad=0p pd=0u as=0p ps=0u w=2e+06u l=300000u
X105 a_13369_n1020.t3 a_13768_n3726.t8 VSS.t21 VSS sky130_fd_pr__nfet_01v8 ad=0p pd=0u as=0p ps=0u w=1e+06u l=300000u
X106 a_1156_1740.t4 a_897_3260.t5 a_807_1740.t5 VDD.t851 sky130_fd_pr__pfet_01v8 ad=0p pd=0u as=0p ps=0u w=2e+06u l=300000u
X107 a_22849_1744.t9 a_22290_1744.t4 a_23198_1744.t5 VDD.t897 sky130_fd_pr__pfet_01v8 ad=0p pd=0u as=0p ps=0u w=2e+06u l=300000u
X108 VDD.t652 B[5].t0 a_17916_3694.t0 VDD.t651 sky130_fd_pr__pfet_01v8 ad=0p pd=0u as=0p ps=0u w=2e+06u l=300000u
X109 a_807_n994.t4 a_248_n994.t4 a_1156_n994.t1 VDD.t313 sky130_fd_pr__pfet_01v8 ad=0p pd=0u as=0p ps=0u w=2e+06u l=300000u
X110 VDD.t805 a_13778_n994.t8 Y[4].t2 VDD.t804 sky130_fd_pr__pfet_01v8 ad=0p pd=0u as=0p ps=0u w=1e+06u l=300000u
X111 VDD.t940 A[6].t1 a_19635_n3748.t2 VDD.t939 sky130_fd_pr__pfet_01v8 ad=0p pd=0u as=0p ps=0u w=1e+06u l=300000u
X112 VDD.t122 A[2].t1 a_4112_n6671.t2 VDD.t121 sky130_fd_pr__pfet_01v8 ad=0p pd=0u as=0p ps=0u w=1e+06u l=300000u
X113 VDD.t1082 opcode[1].t9 a_248_n994.t2 VDD.t1081 sky130_fd_pr__pfet_01v8 ad=0p pd=0u as=0p ps=0u w=1e+06u l=300000u
X114 VSS.t10 B[6].t0 a_13167_n8094.t0 VSS sky130_fd_pr__nfet_01v8 ad=0p pd=0u as=0p ps=0u w=2e+06u l=300000u
X115 a_10167_n1016.t0 a_10566_n3722.t10 VDD.t170 VDD.t169 sky130_fd_pr__pfet_01v8 ad=0p pd=0u as=0p ps=0u w=1e+06u l=300000u
X116 a_1156_n994.t4 a_1681_n1479.t5 a_807_n994.t7 VDD.t590 sky130_fd_pr__pfet_01v8 ad=0p pd=0u as=0p ps=0u w=2e+06u l=300000u
X117 a_402_n7364.t7 a_814_n7390.t4 a_520_n7364.t6 VDD.t812 sky130_fd_pr__pfet_01v8 ad=0p pd=0u as=0p ps=0u w=2e+06u l=300000u
X118 a_16513_n1020.t2 a_16912_n3726.t8 VSS.t168 VSS sky130_fd_pr__nfet_01v8 ad=0p pd=0u as=0p ps=0u w=1e+06u l=300000u
X119 a_14406_3692.t5 A[2].t2 a_14288_3692.t3 VDD.t380 sky130_fd_pr__pfet_01v8 ad=0p pd=0u as=0p ps=0u w=2e+06u l=300000u
X120 a_6961_n8094.t1 A[3].t0 a_6725_n7362.t6 VSS sky130_fd_pr__nfet_01v8 ad=0p pd=0u as=0p ps=0u w=2e+06u l=300000u
X121 VDD.t654 B[5].t1 a_11156_n7386.t2 VDD.t653 sky130_fd_pr__pfet_01v8 ad=0p pd=0u as=0p ps=0u w=1e+06u l=300000u
X122 a_7422_n3722.t2 a_4657_n7364.t8 a_7073_n3722.t5 VDD.t723 sky130_fd_pr__pfet_01v8 ad=0p pd=0u as=0p ps=0u w=2e+06u l=300000u
X123 a_20290_411.t1 a_19230_3112.t4 VSS.t109 VSS sky130_fd_pr__nfet_01v8 ad=0p pd=0u as=0p ps=0u w=2e+06u l=300000u
X124 a_3843_3262.t2 a_3253_3699.t7 VDD.t610 VDD.t609 sky130_fd_pr__pfet_01v8 ad=0p pd=0u as=0p ps=0u w=1e+06u l=300000u
X125 a_14999_n7360.t5 a_14454_n6667.t5 a_14881_n7360.t1 VDD.t220 sky130_fd_pr__pfet_01v8 ad=0p pd=0u as=0p ps=0u w=2e+06u l=300000u
X126 VSS.t4 opcode[0].t10 a_238_n3726.t3 VSS sky130_fd_pr__nfet_01v8 ad=0p pd=0u as=0p ps=0u w=1e+06u l=300000u
X127 VDD.t875 a_13369_1714.t4 a_13429_1740.t11 VDD.t874 sky130_fd_pr__pfet_01v8 ad=0p pd=0u as=0p ps=0u w=2e+06u l=300000u
X128 a_19635_n3748.t1 A[6].t2 VDD.t624 VDD.t623 sky130_fd_pr__pfet_01v8 ad=0p pd=0u as=0p ps=0u w=1e+06u l=300000u
X129 a_12931_n8094.t0 a_13225_n7388.t4 VSS.t162 VSS sky130_fd_pr__nfet_01v8 ad=0p pd=0u as=0p ps=0u w=2e+06u l=300000u
X130 a_7083_n990.t10 a_7957_n1475.t4 a_7432_n990.t5 VDD.t565 sky130_fd_pr__pfet_01v8 ad=0p pd=0u as=0p ps=0u w=2e+06u l=300000u
X131 a_737_n3752.t2 A[0].t2 VDD.t681 VDD.t680 sky130_fd_pr__pfet_01v8 ad=0p pd=0u as=0p ps=0u w=1e+06u l=300000u
X132 VSS.t172 opcode[1].t10 a_19146_n990.t3 VSS sky130_fd_pr__nfet_01v8 ad=0p pd=0u as=0p ps=0u w=1e+06u l=300000u
X133 a_520_n7364.t5 a_814_n7390.t5 a_402_n7364.t6 VDD.t813 sky130_fd_pr__pfet_01v8 ad=0p pd=0u as=0p ps=0u w=2e+06u l=300000u
X134 a_12070_3694.t4 A[0].t3 a_11952_3694.t1 VDD.t331 sky130_fd_pr__pfet_01v8 ad=0p pd=0u as=0p ps=0u w=2e+06u l=300000u
X135 a_11156_n7386.t1 B[5].t2 VDD.t771 VDD.t770 sky130_fd_pr__pfet_01v8 ad=0p pd=0u as=0p ps=0u w=1e+06u l=300000u
X136 a_7073_n3722.t4 a_4657_n7364.t9 a_7422_n3722.t1 VDD.t724 sky130_fd_pr__pfet_01v8 ad=0p pd=0u as=0p ps=0u w=2e+06u l=300000u
X137 a_7083_1744.t7 a_3843_3262.t4 a_7432_1744.t2 VDD.t477 sky130_fd_pr__pfet_01v8 ad=0p pd=0u as=0p ps=0u w=2e+06u l=300000u
X138 VDD.t224 a_13369_n1020.t4 a_13429_n994.t0 VDD.t223 sky130_fd_pr__pfet_01v8 ad=0p pd=0u as=0p ps=0u w=2e+06u l=300000u
X139 a_13419_n3726.t6 opcode[0].t11 VDD.t39 VDD.t38 sky130_fd_pr__pfet_01v8 ad=0p pd=0u as=0p ps=0u w=2e+06u l=300000u
X140 a_897_3260.t1 a_307_3697.t7 VDD.t646 VDD.t645 sky130_fd_pr__pfet_01v8 ad=0p pd=0u as=0p ps=0u w=1e+06u l=300000u
X141 a_4701_3699.t6 A[3].t1 VDD.t959 VDD.t958 sky130_fd_pr__pfet_01v8 ad=0p pd=0u as=0p ps=0u w=1e+06u l=300000u
X142 VSS.t173 opcode[1].t11 a_9668_n990.t3 VSS sky130_fd_pr__nfet_01v8 ad=0p pd=0u as=0p ps=0u w=1e+06u l=300000u
X143 a_14881_n7360.t10 a_15293_n7386.t4 a_14999_n7360.t2 VDD.t891 sky130_fd_pr__pfet_01v8 ad=0p pd=0u as=0p ps=0u w=2e+06u l=300000u
X144 a_19645_n1016.t2 a_20044_n3722.t8 VDD.t831 VDD.t830 sky130_fd_pr__pfet_01v8 ad=0p pd=0u as=0p ps=0u w=1e+06u l=300000u
X145 VSS.t5 opcode[0].t12 a_22290_1744.t3 VSS sky130_fd_pr__nfet_01v8 ad=0p pd=0u as=0p ps=0u w=1e+06u l=300000u
X146 Y[0].t3 a_1156_n994.t8 VSS.t57 VSS sky130_fd_pr__nfet_01v8 ad=0p pd=0u as=0p ps=0u w=1e+06u l=300000u
X147 a_2588_n7362.t5 a_2043_n6669.t5 a_2470_n7362.t2 VDD.t1069 sky130_fd_pr__pfet_01v8 ad=0p pd=0u as=0p ps=0u w=2e+06u l=300000u
X148 a_19695_n3722.t8 a_19136_n3722.t4 a_20044_n3722.t6 VDD.t760 sky130_fd_pr__pfet_01v8 ad=0p pd=0u as=0p ps=0u w=2e+06u l=300000u
X149 a_6811_3260.t2 a_6221_3697.t7 VDD.t500 VDD.t499 sky130_fd_pr__pfet_01v8 ad=0p pd=0u as=0p ps=0u w=1e+06u l=300000u
X150 a_20252_3694.t0 A[7].t4 a_20134_3694.t3 VDD.t203 sky130_fd_pr__pfet_01v8 ad=0p pd=0u as=0p ps=0u w=2e+06u l=300000u
X151 a_23188_n3722.t3 a_14999_n7360.t8 a_22839_n3722.t10 VDD.t838 sky130_fd_pr__pfet_01v8 ad=0p pd=0u as=0p ps=0u w=2e+06u l=300000u
X152 VDD.t626 A[6].t3 a_12813_n7362.t5 VDD.t625 sky130_fd_pr__pfet_01v8 ad=0p pd=0u as=0p ps=0u w=2e+06u l=300000u
X153 VDD.t388 A[0].t4 a_737_n3752.t1 VDD.t387 sky130_fd_pr__pfet_01v8 ad=0p pd=0u as=0p ps=0u w=1e+06u l=300000u
X154 a_6607_n7362.t11 A[3].t2 VDD.t312 VDD.t311 sky130_fd_pr__pfet_01v8 ad=0p pd=0u as=0p ps=0u w=2e+06u l=300000u
X155 VSS.t78 B[1].t2 a_13120_3694.t4 VSS sky130_fd_pr__nfet_01v8 ad=0p pd=0u as=0p ps=0u w=1e+06u l=300000u
X156 a_19705_n990.t11 a_19645_n1016.t4 VDD.t753 VDD.t752 sky130_fd_pr__pfet_01v8 ad=0p pd=0u as=0p ps=0u w=2e+06u l=300000u
X157 a_7422_n3722.t0 a_4657_n7364.t10 a_7073_n3722.t3 VDD.t855 sky130_fd_pr__pfet_01v8 ad=0p pd=0u as=0p ps=0u w=2e+06u l=300000u
X158 Y[3].t3 a_10576_n990.t8 VSS.t175 VSS sky130_fd_pr__nfet_01v8 ad=0p pd=0u as=0p ps=0u w=1e+06u l=300000u
X159 a_19705_1744.t5 a_19230_3112.t5 VDD.t841 VDD.t840 sky130_fd_pr__pfet_01v8 ad=0p pd=0u as=0p ps=0u w=2e+06u l=300000u
X160 a_2470_n7362.t1 a_2043_n6669.t6 a_2588_n7362.t6 VDD.t1070 sky130_fd_pr__pfet_01v8 ad=0p pd=0u as=0p ps=0u w=2e+06u l=300000u
X161 a_20044_n3722.t7 a_19136_n3722.t5 a_19695_n3722.t7 VDD.t761 sky130_fd_pr__pfet_01v8 ad=0p pd=0u as=0p ps=0u w=2e+06u l=300000u
X162 a_22839_n3722.t11 a_14999_n7360.t9 a_23188_n3722.t2 VDD.t839 sky130_fd_pr__pfet_01v8 ad=0p pd=0u as=0p ps=0u w=2e+06u l=300000u
X163 a_11101_n1475.t3 a_10576_1744.t8 VSS.t114 VSS sky130_fd_pr__nfet_01v8 ad=0p pd=0u as=0p ps=0u w=1e+06u l=300000u
X164 a_10227_n990.t4 a_10167_n1016.t5 VDD.t735 VDD.t734 sky130_fd_pr__pfet_01v8 ad=0p pd=0u as=0p ps=0u w=2e+06u l=300000u
X165 VSS.t44 A[3].t3 a_6180_n6669.t3 VSS sky130_fd_pr__nfet_01v8 ad=0p pd=0u as=0p ps=0u w=1e+06u l=300000u
X166 a_12813_n7362.t1 A[6].t4 VDD.t262 VDD.t261 sky130_fd_pr__pfet_01v8 ad=0p pd=0u as=0p ps=0u w=2e+06u l=300000u
X167 a_13778_1740.t2 a_6811_3260.t4 a_13429_1740.t4 VDD.t800 sky130_fd_pr__pfet_01v8 ad=0p pd=0u as=0p ps=0u w=2e+06u l=300000u
X168 VDD.t1259 opcode[1].t12 a_6524_n990.t2 VDD.t1258 sky130_fd_pr__pfet_01v8 ad=0p pd=0u as=0p ps=0u w=1e+06u l=300000u
X169 VDD.t246 a_7422_n3722.t8 a_7023_n1016.t0 VDD.t245 sky130_fd_pr__pfet_01v8 ad=0p pd=0u as=0p ps=0u w=1e+06u l=300000u
X170 a_10227_1744.t6 a_10167_1718.t5 VDD.t502 VDD.t501 sky130_fd_pr__pfet_01v8 ad=0p pd=0u as=0p ps=0u w=2e+06u l=300000u
X171 a_11205_3262.t2 a_10615_3699.t7 VDD.t1193 VDD.t1192 sky130_fd_pr__pfet_01v8 ad=0p pd=0u as=0p ps=0u w=1e+06u l=300000u
X172 a_807_1740.t2 opcode[0].t13 VDD.t302 VDD.t301 sky130_fd_pr__pfet_01v8 ad=0p pd=0u as=0p ps=0u w=2e+06u l=300000u
X173 VDD.t304 opcode[0].t14 a_6524_1744.t2 VDD.t303 sky130_fd_pr__pfet_01v8 ad=0p pd=0u as=0p ps=0u w=1e+06u l=300000u
X174 VDD.t809 A[3].t4 a_6607_n7362.t10 VDD.t808 sky130_fd_pr__pfet_01v8 ad=0p pd=0u as=0p ps=0u w=2e+06u l=300000u
X175 a_16922_1740.t3 a_16014_1740.t4 a_16573_1740.t2 VDD.t450 sky130_fd_pr__pfet_01v8 ad=0p pd=0u as=0p ps=0u w=2e+06u l=300000u
X176 a_13778_n994.t5 a_14303_n1479.t5 a_13429_n994.t9 VDD.t514 sky130_fd_pr__pfet_01v8 ad=0p pd=0u as=0p ps=0u w=2e+06u l=300000u
X177 a_20054_n990.t5 a_20579_n1475.t5 a_19705_n990.t8 VDD.t1062 sky130_fd_pr__pfet_01v8 ad=0p pd=0u as=0p ps=0u w=2e+06u l=300000u
X178 a_16922_1740.t7 a_8259_3260.t5 a_16573_1740.t10 VDD.t1126 sky130_fd_pr__pfet_01v8 ad=0p pd=0u as=0p ps=0u w=2e+06u l=300000u
X179 a_20054_1744.t2 a_9757_3262.t4 a_19705_1744.t11 VDD.t578 sky130_fd_pr__pfet_01v8 ad=0p pd=0u as=0p ps=0u w=2e+06u l=300000u
X180 a_16912_n3726.t6 a_10862_n7360.t8 a_16563_n3726.t9 VDD.t853 sky130_fd_pr__pfet_01v8 ad=0p pd=0u as=0p ps=0u w=2e+06u l=300000u
X181 VDD.t773 B[5].t3 a_17916_3694.t2 VDD.t772 sky130_fd_pr__pfet_01v8 ad=0p pd=0u as=0p ps=0u w=2e+06u l=300000u
X182 a_807_n994.t2 opcode[1].t13 VDD.t1100 VDD.t1099 sky130_fd_pr__pfet_01v8 ad=0p pd=0u as=0p ps=0u w=2e+06u l=300000u
X183 a_8259_3260.t2 a_7669_3697.t7 VDD.t1067 VDD.t1066 sky130_fd_pr__pfet_01v8 ad=0p pd=0u as=0p ps=0u w=1e+06u l=300000u
X184 a_8794_n8094.t0 a_9088_n7388.t4 VSS.t55 VSS sky130_fd_pr__nfet_01v8 ad=0p pd=0u as=0p ps=0u w=2e+06u l=300000u
X185 a_14999_n7360.t4 a_14454_n6667.t6 a_14881_n7360.t2 VDD.t221 sky130_fd_pr__pfet_01v8 ad=0p pd=0u as=0p ps=0u w=2e+06u l=300000u
X186 a_2588_n7362.t3 a_2043_n6669.t7 a_2470_n7362.t0 VDD.t1068 sky130_fd_pr__pfet_01v8 ad=0p pd=0u as=0p ps=0u w=2e+06u l=300000u
X187 VSS.t43 opcode[0].t15 a_248_1740.t3 VSS sky130_fd_pr__nfet_01v8 ad=0p pd=0u as=0p ps=0u w=1e+06u l=300000u
X188 a_16922_n994.t3 a_16014_n994.t4 a_16573_n994.t1 VDD.t250 sky130_fd_pr__pfet_01v8 ad=0p pd=0u as=0p ps=0u w=2e+06u l=300000u
X189 a_23198_n990.t7 a_23723_n1475.t5 a_22849_n990.t9 VDD.t743 sky130_fd_pr__pfet_01v8 ad=0p pd=0u as=0p ps=0u w=2e+06u l=300000u
X190 a_10862_n7360.t4 a_10317_n6667.t4 a_10744_n7360.t11 VDD.t881 sky130_fd_pr__pfet_01v8 ad=0p pd=0u as=0p ps=0u w=2e+06u l=300000u
X191 VDD.t104 B[6].t1 a_12813_n7362.t0 VDD.t103 sky130_fd_pr__pfet_01v8 ad=0p pd=0u as=0p ps=0u w=2e+06u l=300000u
X192 a_16922_n994.t5 a_17447_n1479.t4 a_16573_n994.t6 VDD.t460 sky130_fd_pr__pfet_01v8 ad=0p pd=0u as=0p ps=0u w=2e+06u l=300000u
X193 a_19084_3696.t5 A[6].t5 a_18966_3696.t4 VDD.t263 sky130_fd_pr__pfet_01v8 ad=0p pd=0u as=0p ps=0u w=2e+06u l=300000u
X194 a_7073_n3722.t9 a_6514_n3722.t4 a_7422_n3722.t4 VDD.t185 sky130_fd_pr__pfet_01v8 ad=0p pd=0u as=0p ps=0u w=2e+06u l=300000u
X195 a_23198_1744.t6 a_11205_3262.t4 a_22849_1744.t10 VDD.t1155 sky130_fd_pr__pfet_01v8 ad=0p pd=0u as=0p ps=0u w=2e+06u l=300000u
X196 a_1392_n2327.t1 a_747_n1020.t5 VSS.t28 VSS sky130_fd_pr__nfet_01v8 ad=0p pd=0u as=0p ps=0u w=2e+06u l=300000u
X197 a_4825_n1479.t2 a_4300_1740.t9 VDD.t48 VDD.t47 sky130_fd_pr__pfet_01v8 ad=0p pd=0u as=0p ps=0u w=1e+06u l=300000u
X198 VDD.t1238 a_16912_n3726.t9 a_16513_n1020.t3 VDD.t1237 sky130_fd_pr__pfet_01v8 ad=0p pd=0u as=0p ps=0u w=1e+06u l=300000u
X199 a_10576_n990.t6 a_9668_n990.t4 a_10227_n990.t8 VDD.t990 sky130_fd_pr__pfet_01v8 ad=0p pd=0u as=0p ps=0u w=2e+06u l=300000u
X200 Y[2].t3 a_7432_n990.t10 VSS.t70 VSS sky130_fd_pr__nfet_01v8 ad=0p pd=0u as=0p ps=0u w=1e+06u l=300000u
X201 a_10576_1744.t2 a_9668_1744.t4 a_10227_1744.t0 VDD.t176 sky130_fd_pr__pfet_01v8 ad=0p pd=0u as=0p ps=0u w=2e+06u l=300000u
X202 a_17447_n1479.t3 a_16922_1740.t8 VSS.t99 VSS sky130_fd_pr__nfet_01v8 ad=0p pd=0u as=0p ps=0u w=1e+06u l=300000u
X203 VDD.t974 a_18966_3696.t5 a_19230_3112.t2 VDD.t973 sky130_fd_pr__pfet_01v8 ad=0p pd=0u as=0p ps=0u w=1e+06u l=300000u
X204 VDD.t1102 opcode[1].t14 a_7083_n990.t2 VDD.t1101 sky130_fd_pr__pfet_01v8 ad=0p pd=0u as=0p ps=0u w=2e+06u l=300000u
X205 a_10227_n990.t11 a_11101_n1475.t4 a_10576_n990.t7 VDD.t1158 sky130_fd_pr__pfet_01v8 ad=0p pd=0u as=0p ps=0u w=2e+06u l=300000u
X206 Y[1].t2 a_4300_n994.t9 VDD.t702 VDD.t701 sky130_fd_pr__pfet_01v8 ad=0p pd=0u as=0p ps=0u w=1e+06u l=300000u
X207 a_2470_n7362.t7 a_2882_n7388.t4 a_2588_n7362.t2 VDD.t725 sky130_fd_pr__pfet_01v8 ad=0p pd=0u as=0p ps=0u w=2e+06u l=300000u
X208 a_7422_n3722.t3 opcode[0].t16 a_7658_n5055.t1 VSS sky130_fd_pr__nfet_01v8 ad=0p pd=0u as=0p ps=0u w=2e+06u l=300000u
X209 a_16513_1714.t3 a_17798_3694.t5 VSS.t141 VSS sky130_fd_pr__nfet_01v8 ad=0p pd=0u as=0p ps=0u w=1e+06u l=300000u
X210 VDD.t919 opcode[0].t17 a_7083_1744.t2 VDD.t918 sky130_fd_pr__pfet_01v8 ad=0p pd=0u as=0p ps=0u w=2e+06u l=300000u
X211 a_10227_1744.t11 a_5291_3262.t5 a_10576_1744.t7 VDD.t970 sky130_fd_pr__pfet_01v8 ad=0p pd=0u as=0p ps=0u w=2e+06u l=300000u
X212 VDD.t205 A[7].t5 a_14454_n6667.t2 VDD.t204 sky130_fd_pr__pfet_01v8 ad=0p pd=0u as=0p ps=0u w=1e+06u l=300000u
X213 a_1755_3697.t3 A[1].t5 VDD.t145 VDD.t144 sky130_fd_pr__pfet_01v8 ad=0p pd=0u as=0p ps=0u w=1e+06u l=300000u
X214 a_10744_n7360.t10 a_10317_n6667.t5 a_10862_n7360.t5 VDD.t1125 sky130_fd_pr__pfet_01v8 ad=0p pd=0u as=0p ps=0u w=2e+06u l=300000u
X215 VDD.t904 A[5].t3 a_10317_n6667.t2 VDD.t903 sky130_fd_pr__pfet_01v8 ad=0p pd=0u as=0p ps=0u w=1e+06u l=300000u
X216 a_12070_3694.t3 A[0].t5 a_11952_3694.t3 VDD.t100 sky130_fd_pr__pfet_01v8 ad=0p pd=0u as=0p ps=0u w=2e+06u l=300000u
X217 a_797_n3726.t2 a_520_n7364.t8 a_1146_n3726.t4 VDD.t926 sky130_fd_pr__pfet_01v8 ad=0p pd=0u as=0p ps=0u w=2e+06u l=300000u
X218 a_10157_n3748.t2 A[3].t5 VDD.t811 VDD.t810 sky130_fd_pr__pfet_01v8 ad=0p pd=0u as=0p ps=0u w=1e+06u l=300000u
X219 a_814_n7390.t3 B[0].t0 VSS.t169 VSS sky130_fd_pr__nfet_01v8 ad=0p pd=0u as=0p ps=0u w=1e+06u l=300000u
X220 VSS.t124 opcode[0].t18 a_16014_1740.t3 VSS sky130_fd_pr__nfet_01v8 ad=0p pd=0u as=0p ps=0u w=1e+06u l=300000u
X221 a_1156_n994.t0 opcode[1].t15 a_1392_n2327.t0 VSS sky130_fd_pr__nfet_01v8 ad=0p pd=0u as=0p ps=0u w=2e+06u l=300000u
X222 a_4701_3699.t5 A[3].t6 VDD.t479 VDD.t478 sky130_fd_pr__pfet_01v8 ad=0p pd=0u as=0p ps=0u w=1e+06u l=300000u
X223 VDD.t1010 opcode[0].t19 a_12870_1740.t2 VDD.t1009 sky130_fd_pr__pfet_01v8 ad=0p pd=0u as=0p ps=0u w=1e+06u l=300000u
X224 a_23424_n5055.t1 a_21997_n6357.t5 VSS.t140 VSS sky130_fd_pr__nfet_01v8 ad=0p pd=0u as=0p ps=0u w=2e+06u l=300000u
X225 VDD.t1012 opcode[0].t20 a_22839_n3722.t4 VDD.t1011 sky130_fd_pr__pfet_01v8 ad=0p pd=0u as=0p ps=0u w=2e+06u l=300000u
X226 VSS.t16 B[3].t2 a_4938_3062.t0 VSS sky130_fd_pr__nfet_01v8 ad=0p pd=0u as=0p ps=0u w=2e+06u l=300000u
X227 a_7013_n3748.t2 A[2].t3 VDD.t382 VDD.t381 sky130_fd_pr__pfet_01v8 ad=0p pd=0u as=0p ps=0u w=1e+06u l=300000u
X228 a_13768_n3726.t2 opcode[0].t21 a_14004_n5059.t1 VSS sky130_fd_pr__nfet_01v8 ad=0p pd=0u as=0p ps=0u w=2e+06u l=300000u
X229 VDD.t869 a_16630_3696.t6 a_13369_1714.t2 VDD.t868 sky130_fd_pr__pfet_01v8 ad=0p pd=0u as=0p ps=0u w=1e+06u l=300000u
X230 a_8676_n7362.t8 A[4].t1 VDD.t573 VDD.t572 sky130_fd_pr__pfet_01v8 ad=0p pd=0u as=0p ps=0u w=2e+06u l=300000u
X231 VDD.t398 A[6].t6 a_9167_3699.t1 VDD.t397 sky130_fd_pr__pfet_01v8 ad=0p pd=0u as=0p ps=0u w=1e+06u l=300000u
X232 VDD.t1104 opcode[1].t16 a_12870_n994.t2 VDD.t1103 sky130_fd_pr__pfet_01v8 ad=0p pd=0u as=0p ps=0u w=1e+06u l=300000u
X233 a_7894_n5055.t1 a_6514_n3722.t5 a_7422_n3722.t6 VSS sky130_fd_pr__nfet_01v8 ad=0p pd=0u as=0p ps=0u w=2e+06u l=300000u
X234 a_10217_n3722.t7 a_10157_n3748.t4 VDD.t741 VDD.t740 sky130_fd_pr__pfet_01v8 ad=0p pd=0u as=0p ps=0u w=2e+06u l=300000u
X235 a_9404_3062.t1 A[6].t7 a_9167_3699.t2 VSS sky130_fd_pr__nfet_01v8 ad=0p pd=0u as=0p ps=0u w=2e+06u l=300000u
X236 VDD.t863 opcode[0].t22 a_16014_1740.t1 VDD.t862 sky130_fd_pr__pfet_01v8 ad=0p pd=0u as=0p ps=0u w=1e+06u l=300000u
X237 a_21997_n6357.t3 A[7].t6 VSS.t31 VSS sky130_fd_pr__nfet_01v8 ad=0p pd=0u as=0p ps=0u w=1e+06u l=300000u
X238 a_16912_n3726.t0 opcode[0].t23 a_17148_n5059.t0 VSS sky130_fd_pr__nfet_01v8 ad=0p pd=0u as=0p ps=0u w=2e+06u l=300000u
X239 a_1146_n3726.t5 a_520_n7364.t9 a_797_n3726.t1 VDD.t927 sky130_fd_pr__pfet_01v8 ad=0p pd=0u as=0p ps=0u w=2e+06u l=300000u
X240 a_14999_n7360.t7 a_14454_n6667.t7 a_14999_n8092.t1 VSS sky130_fd_pr__nfet_01v8 ad=0p pd=0u as=0p ps=0u w=2e+06u l=300000u
X241 a_12813_n7362.t4 A[6].t8 VDD.t620 VDD.t619 sky130_fd_pr__pfet_01v8 ad=0p pd=0u as=0p ps=0u w=2e+06u l=300000u
X242 VSS.t2 B[2].t1 a_14288_3692.t0 VSS sky130_fd_pr__nfet_01v8 ad=0p pd=0u as=0p ps=0u w=1e+06u l=300000u
X243 VSS.t60 a_2345_3260.t4 a_4772_407.t1 VSS sky130_fd_pr__nfet_01v8 ad=0p pd=0u as=0p ps=0u w=2e+06u l=300000u
X244 a_13768_n3726.t5 a_8794_n7362.t8 a_13419_n3726.t9 VDD.t730 sky130_fd_pr__pfet_01v8 ad=0p pd=0u as=0p ps=0u w=2e+06u l=300000u
X245 a_12931_n7362.t5 a_12386_n6669.t5 a_12813_n7362.t10 VDD.t279 sky130_fd_pr__pfet_01v8 ad=0p pd=0u as=0p ps=0u w=2e+06u l=300000u
X246 a_23188_n3722.t5 opcode[0].t24 a_23424_n5055.t0 VSS sky130_fd_pr__nfet_01v8 ad=0p pd=0u as=0p ps=0u w=2e+06u l=300000u
X247 VDD.t1106 opcode[1].t17 a_16014_n994.t1 VDD.t1105 sky130_fd_pr__pfet_01v8 ad=0p pd=0u as=0p ps=0u w=1e+06u l=300000u