* NGSPICE file created from aritmetic_unit_pex.ext - technology: sky130B

.subckt arithmetic_unit A[0],A[1],A[2],A[3],A[4],A[5],A[6],A[7] B[0],B[1],B[2],B[3],B[4],B[5],B[6],B[7] opcode[0],opcode[1] Y[0],Y[1],Y[2],Y[3],Y[4],Y[5],Y[6],Y[7] Cout VSS VDD
X0 VDD.t1424 a_4963_19248.t4 a_8998_20136.t3 w_8904_20100# sky130_fd_pr__pfet_01v8 ad=0p pd=0u as=0p ps=0u w=1e+06u l=300000u
X1 a_15556_20132.t6 a_11521_19244.t4 VDD.t2563 w_15462_20096# sky130_fd_pr__pfet_01v8 ad=0p pd=0u as=0p ps=0u w=1e+06u l=300000u
X2 a_5917_18826.t2 a_5860_19519.t8 VDD.t2590 w_4929_19483# sky130_fd_pr__pfet_01v8 ad=0p pd=0u as=0p ps=0u w=1e+06u l=300000u
X3 VDD.t2570 a_21150_9929.t8 a_31893_6205.t9 VDD.t2569 sky130_fd_pr__pfet_01v8 ad=0p pd=0u as=0p ps=0u w=2e+06u l=300000u
X4 a_13164_12246.t2 a_12900_12829.t5 VDD.t2613 VDD.t2612 sky130_fd_pr__pfet_01v8 ad=0p pd=0u as=0p ps=0u w=1e+06u l=300000u
X5 a_17946_9198.t0 a_17356_9635.t7 VSS.t196 VSS sky130_fd_pr__nfet_01v8 ad=0p pd=0u as=0p ps=0u w=1e+06u l=300000u
X6 a_7735_24460.t2 a_n3111_15192.t8 VDD.t2400 w_7271_25091# sky130_fd_pr__pfet_01v8 ad=0p pd=0u as=0p ps=0u w=2e+06u l=300000u
X7 a_9415_27296.t2 a_8419_26709.t4 VDD.t2340 w_9261_27234# sky130_fd_pr__pfet_01v8 ad=0p pd=0u as=0p ps=0u w=2e+06u l=300000u
X8 VDD.t2500 A[3].t0 a_29769_12318.t3 VDD.t2499 sky130_fd_pr__pfet_01v8 ad=0p pd=0u as=0p ps=0u w=1e+06u l=300000u
X9 a_22462_27288.t5 a_21466_26701.t4 VDD.t2345 w_22308_27226# sky130_fd_pr__pfet_01v8 ad=0p pd=0u as=0p ps=0u w=2e+06u l=300000u
X10 VDD.t2454 a_30430_6928.t4 a_33377_10390.t2 VDD.t2453 sky130_fd_pr__pfet_01v8 ad=0p pd=0u as=0p ps=0u w=1e+06u l=300000u
X11 a_31893_1857.t8 a_31466_2550.t4 a_32011_1857.t6 VDD.t2448 sky130_fd_pr__pfet_01v8 ad=0p pd=0u as=0p ps=0u w=2e+06u l=300000u
X12 VDD.t2523 a_17301_11213.t4 a_17356_9635.t4 VDD.t2522 sky130_fd_pr__pfet_01v8 ad=0p pd=0u as=0p ps=0u w=1e+06u l=300000u
X13 a_15570_21782.t0 A[6].t0 a_16219_21171.t0 VSS sky130_fd_pr__nfet_01v8 ad=0p pd=0u as=0p ps=0u w=2e+06u l=300000u
X14 a_18991_21663.t3 a_20058_21029.t5 VDD.t2439 w_19964_21040# sky130_fd_pr__pfet_01v8 ad=0p pd=0u as=0p ps=0u w=1e+06u l=300000u
X15 VDD.t2416 a_10641_5411.t4 a_14372_4127.t2 VDD.t2415 sky130_fd_pr__pfet_01v8 ad=0p pd=0u as=0p ps=0u w=2e+06u l=300000u
X16 a_14496_9997.t6 a_13951_10690.t4 a_14496_9265.t1 VSS sky130_fd_pr__nfet_01v8 ad=0p pd=0u as=0p ps=0u w=2e+06u l=300000u
X17 a_8998_20136.t0 a_4963_19248.t5 a_9647_19525.t0 VSS sky130_fd_pr__nfet_01v8 ad=0p pd=0u as=0p ps=0u w=2e+06u l=300000u
X18 a_12181_18848.t3 a_11523_19541.t4 a_12063_18848.t3 w_11487_19479# sky130_fd_pr__pfet_01v8 ad=0p pd=0u as=0p ps=0u w=2e+06u l=300000u
X19 a_12592_4127.t3 a_12886_4101.t4 a_12474_4127.t5 VDD.t2342 sky130_fd_pr__pfet_01v8 ad=0p pd=0u as=0p ps=0u w=2e+06u l=300000u
X20 VDD.t2325 a_5899_21662.t4 a_5959_21688.t2 w_5730_21043# sky130_fd_pr__pfet_01v8 ad=0p pd=0u as=0p ps=0u w=2e+06u l=300000u
X21 a_11277_6650.t3 a_10687_7087.t7 VDD.t2320 VDD.t2319 sky130_fd_pr__pfet_01v8 ad=0p pd=0u as=0p ps=0u w=1e+06u l=300000u
X22 a_13060_23726.t3 a_12470_24163.t7 VDD.t2232 w_12316_24101# sky130_fd_pr__pfet_01v8 ad=0p pd=0u as=0p ps=0u w=1e+06u l=300000u
X23 a_7853_24460.t3 a_7308_25153.t4 a_7735_24460.t11 w_7271_25091# sky130_fd_pr__pfet_01v8 ad=0p pd=0u as=0p ps=0u w=2e+06u l=300000u
X24 a_6966_21028.t3 a_7395_21658.t4 a_7101_21684.t3 w_6872_21039# sky130_fd_pr__pfet_01v8 ad=0p pd=0u as=0p ps=0u w=2e+06u l=300000u
X25 a_4740_5002.t3 a_4150_5439.t7 VDD.t2305 VDD.t2304 sky130_fd_pr__pfet_01v8 ad=0p pd=0u as=0p ps=0u w=1e+06u l=300000u
X26 VDD.t2293 a_6041_4129.t8 a_7394_4822.t3 VDD.t2292 sky130_fd_pr__pfet_01v8 ad=0p pd=0u as=0p ps=0u w=1e+06u l=300000u
X27 a_6552_25333.t0 a_5962_25770.t7 VSS.t393 VSS sky130_fd_pr__nfet_01v8 ad=0p pd=0u as=0p ps=0u w=1e+06u l=300000u
X28 VDD.t2370 a_14496_9997.t8 a_17361_11239.t2 VDD.t2369 sky130_fd_pr__pfet_01v8 ad=0p pd=0u as=0p ps=0u w=1e+06u l=300000u
X29 a_4735_3398.t0 a_4145_3835.t7 VSS.t390 VSS sky130_fd_pr__nfet_01v8 ad=0p pd=0u as=0p ps=0u w=1e+06u l=300000u
X30 VSS.t385 a_23918_5413.t4 a_24210_3198.t0 VSS sky130_fd_pr__nfet_01v8 ad=0p pd=0u as=0p ps=0u w=2e+06u l=300000u
X31 a_n3111_15192.t4 a_n3604_15973.t4 a_n3804_15135.t2 VDD.t2077 sky130_fd_pr__pfet_01v8 ad=0p pd=0u as=0p ps=0u w=2e+06u l=300000u
X32 a_18597_18853.t6 a_18055_19249.t4 VDD.t2080 w_18021_19484# sky130_fd_pr__pfet_01v8 ad=0p pd=0u as=0p ps=0u w=2e+06u l=300000u
X33 a_1246_10551.t4 A[5].t0 VDD.t2124 VDD.t2123 sky130_fd_pr__pfet_01v8 ad=0p pd=0u as=0p ps=0u w=1e+06u l=300000u
X34 VSS.t360 a_4965_19545.t4 a_5623_18120.t0 VSS sky130_fd_pr__nfet_01v8 ad=0p pd=0u as=0p ps=0u w=2e+06u l=300000u
X35 a_15097_1774.t3 a_14507_1337.t7 VDD.t2174 VDD.t2173 sky130_fd_pr__pfet_01v8 ad=0p pd=0u as=0p ps=0u w=1e+06u l=300000u
X36 VDD.t2176 a_7947_9909.t8 a_31891_13791.t5 VDD.t2175 sky130_fd_pr__pfet_01v8 ad=0p pd=0u as=0p ps=0u w=2e+06u l=300000u
X37 a_14248_24457.t2 A[1].t0 VDD.t2161 w_13784_25088# sky130_fd_pr__pfet_01v8 ad=0p pd=0u as=0p ps=0u w=2e+06u l=300000u
X38 a_33614_1910.t0 a_14490_4127.t8 a_33377_2547.t3 VSS sky130_fd_pr__nfet_01v8 ad=0p pd=0u as=0p ps=0u w=2e+06u l=300000u
X39 VDD.t2082 B[5].t0 a_14467_15035.t2 VDD.t2081 sky130_fd_pr__pfet_01v8 ad=0p pd=0u as=0p ps=0u w=1e+06u l=300000u
X40 a_10693_12957.t3 a_8508_14599.t4 VDD.t2042 VDD.t2041 sky130_fd_pr__pfet_01v8 ad=0p pd=0u as=0p ps=0u w=1e+06u l=300000u
X41 a_27000_21662.t3 a_28608_18536.t7 VDD.t1974 w_28514_18500# sky130_fd_pr__pfet_01v8 ad=0p pd=0u as=0p ps=0u w=1e+06u l=300000u
X42 a_7953_1332.t3 B[5].t1 VDD.t2084 VDD.t2083 sky130_fd_pr__pfet_01v8 ad=0p pd=0u as=0p ps=0u w=1e+06u l=300000u
X43 VDD.t1978 B[4].t0 a_1227_7273.t2 VDD.t1977 sky130_fd_pr__pfet_01v8 ad=0p pd=0u as=0p ps=0u w=1e+06u l=300000u
X44 a_16074_26710.t0 a_15810_27293.t5 VSS.t338 VSS sky130_fd_pr__nfet_01v8 ad=0p pd=0u as=0p ps=0u w=1e+06u l=300000u
X45 VSS.t343 a_36755_23013.t8 Y[0].t0 VSS sky130_fd_pr__nfet_01v8 ad=0p pd=0u as=0p ps=0u w=1e+06u l=300000u
X46 a_30359_11881.t3 a_29769_12318.t7 VDD.t2394 VDD.t2393 sky130_fd_pr__pfet_01v8 ad=0p pd=0u as=0p ps=0u w=1e+06u l=300000u
X47 a_n3115_713.t2 a_n3608_55.t4 a_n3808_656.t2 VDD.t1931 sky130_fd_pr__pfet_01v8 ad=0p pd=0u as=0p ps=0u w=2e+06u l=300000u
X48 VDD.t1923 a_25465_19523.t8 a_25110_18856.t3 w_24534_19487# sky130_fd_pr__pfet_01v8 ad=0p pd=0u as=0p ps=0u w=2e+06u l=300000u
X49 a_n2381_8987.t0 a_n3606_9768.t4 a_n3113_8987.t4 VSS sky130_fd_pr__nfet_01v8 ad=0p pd=0u as=0p ps=0u w=2e+06u l=300000u
X50 VDD.t1752 a_19554_12761.t5 a_19818_12178.t3 VDD.t1751 sky130_fd_pr__pfet_01v8 ad=0p pd=0u as=0p ps=0u w=1e+06u l=300000u
X51 a_31891_13791.t6 a_31464_14484.t4 a_32009_13791.t5 VDD.t1788 sky130_fd_pr__pfet_01v8 ad=0p pd=0u as=0p ps=0u w=2e+06u l=300000u
X52 VDD.t1807 opcode[0].t0 a_5957_24166.t2 w_5803_24104# sky130_fd_pr__pfet_01v8 ad=0p pd=0u as=0p ps=0u w=1e+06u l=300000u
X53 a_36751_13711.t5 a_32011_1857.t8 VDD.t2555 VDD.t2554 sky130_fd_pr__pfet_01v8 ad=0p pd=0u as=0p ps=0u w=2e+06u l=300000u
X54 a_25759_9997.t8 a_20955_6381.t4 VDD.t1761 VDD.t1760 sky130_fd_pr__pfet_01v8 ad=0p pd=0u as=0p ps=0u w=2e+06u l=300000u
X55 VDD.t2442 a_15570_21782.t7 a_13599_21654.t3 w_15476_21746# sky130_fd_pr__pfet_01v8 ad=0p pd=0u as=0p ps=0u w=1e+06u l=300000u
X56 a_8998_20136.t2 a_4963_19248.t6 VDD.t1423 w_8904_20100# sky130_fd_pr__pfet_01v8 ad=0p pd=0u as=0p ps=0u w=1e+06u l=300000u
X57 VDD.t2615 a_12900_12829.t6 a_13164_12246.t1 VDD.t2614 sky130_fd_pr__pfet_01v8 ad=0p pd=0u as=0p ps=0u w=1e+06u l=300000u
X58 a_17356_5438.t6 a_17296_5412.t4 VDD.t1720 VDD.t1719 sky130_fd_pr__pfet_01v8 ad=0p pd=0u as=0p ps=0u w=1e+06u l=300000u
X59 a_5496_4822.t3 a_1833_4076.t4 VDD.t1688 VDD.t1687 sky130_fd_pr__pfet_01v8 ad=0p pd=0u as=0p ps=0u w=1e+06u l=300000u
X60 VDD.t1658 a_1836_10114.t4 a_4144_12869.t2 VDD.t1657 sky130_fd_pr__pfet_01v8 ad=0p pd=0u as=0p ps=0u w=1e+06u l=300000u
X61 VDD.t2341 a_8419_26709.t5 a_9415_27296.t1 w_9261_27234# sky130_fd_pr__pfet_01v8 ad=0p pd=0u as=0p ps=0u w=2e+06u l=300000u
X62 a_29769_12318.t2 A[3].t1 VDD.t2502 VDD.t2501 sky130_fd_pr__pfet_01v8 ad=0p pd=0u as=0p ps=0u w=1e+06u l=300000u
X63 VDD.t2346 a_21466_26701.t5 a_22462_27288.t4 w_22308_27226# sky130_fd_pr__pfet_01v8 ad=0p pd=0u as=0p ps=0u w=2e+06u l=300000u
X64 a_13065_25330.t3 a_12475_25767.t7 VDD.t1644 w_12321_25705# sky130_fd_pr__pfet_01v8 ad=0p pd=0u as=0p ps=0u w=1e+06u l=300000u
X65 a_14490_3395.t0 a_14784_4101.t4 VSS.t296 VSS sky130_fd_pr__nfet_01v8 ad=0p pd=0u as=0p ps=0u w=2e+06u l=300000u
X66 VDD.t1609 A[4].t0 a_7953_1332.t4 VDD.t1608 sky130_fd_pr__pfet_01v8 ad=0p pd=0u as=0p ps=0u w=1e+06u l=300000u
X67 a_38088_20578.t0 a_16264_24457.t8 VSS.t298 VSS sky130_fd_pr__nfet_01v8 ad=0p pd=0u as=0p ps=0u w=2e+06u l=300000u
X68 a_n3606_7699.t0 opcode[0].t1 VSS.t327 VSS sky130_fd_pr__nfet_01v8 ad=0p pd=0u as=0p ps=0u w=1e+06u l=300000u
X69 a_14786_27289.t2 a_13051_26980.t4 VDD.t1596 w_14632_27227# sky130_fd_pr__pfet_01v8 ad=0p pd=0u as=0p ps=0u w=2e+06u l=300000u
X70 VDD.t2440 a_20058_21029.t6 a_18991_21663.t2 w_19964_21040# sky130_fd_pr__pfet_01v8 ad=0p pd=0u as=0p ps=0u w=1e+06u l=300000u
X71 a_21145_4128.t7 a_21439_4102.t4 a_21027_4128.t11 VDD.t744 sky130_fd_pr__pfet_01v8 ad=0p pd=0u as=0p ps=0u w=2e+06u l=300000u
X72 a_28617_21790.t6 a_n3113_6918.t8 VDD.t1401 w_28523_21754# sky130_fd_pr__pfet_01v8 ad=0p pd=0u as=0p ps=0u w=1e+06u l=300000u
X73 a_12063_18848.t8 a_12475_18822.t4 a_12181_18848.t7 w_11487_19479# sky130_fd_pr__pfet_01v8 ad=0p pd=0u as=0p ps=0u w=2e+06u l=300000u
X74 a_36751_16855.t7 opcode[1].t0 VDD.t1477 VDD.t1476 sky130_fd_pr__pfet_01v8 ad=0p pd=0u as=0p ps=0u w=2e+06u l=300000u
X75 a_16264_24457.t1 a_15719_25150.t4 a_16146_24457.t5 w_13784_25088# sky130_fd_pr__pfet_01v8 ad=0p pd=0u as=0p ps=0u w=2e+06u l=300000u
X76 a_5959_21688.t1 a_5899_21662.t5 VDD.t2326 w_5730_21043# sky130_fd_pr__pfet_01v8 ad=0p pd=0u as=0p ps=0u w=2e+06u l=300000u
X77 VDD.t2233 a_12470_24163.t8 a_13060_23726.t2 w_12316_24101# sky130_fd_pr__pfet_01v8 ad=0p pd=0u as=0p ps=0u w=1e+06u l=300000u
X78 a_n3608_5631.t3 opcode[0].t2 VDD.t1809 VDD.t1808 sky130_fd_pr__pfet_01v8 ad=0p pd=0u as=0p ps=0u w=1e+06u l=300000u
X79 a_32305_9674.t0 a_30359_8848.t4 VSS.t266 VSS sky130_fd_pr__nfet_01v8 ad=0p pd=0u as=0p ps=0u w=1e+06u l=300000u
X80 a_21032_9929.t7 a_21444_9903.t4 a_21150_9929.t5 VDD.t1380 sky130_fd_pr__pfet_01v8 ad=0p pd=0u as=0p ps=0u w=2e+06u l=300000u
X81 a_21746_1762.t3 a_21156_1325.t7 VDD.t1471 VDD.t1470 sky130_fd_pr__pfet_01v8 ad=0p pd=0u as=0p ps=0u w=1e+06u l=300000u
X82 VDD.t558 a_18952_19520.t8 a_18597_18853.t8 w_18021_19484# sky130_fd_pr__pfet_01v8 ad=0p pd=0u as=0p ps=0u w=2e+06u l=300000u
X83 VDD.t2044 a_8508_14599.t5 a_10702_9703.t4 VDD.t2043 sky130_fd_pr__pfet_01v8 ad=0p pd=0u as=0p ps=0u w=1e+06u l=300000u
X84 VDD.t2126 A[5].t1 a_1246_10551.t3 VDD.t2125 sky130_fd_pr__pfet_01v8 ad=0p pd=0u as=0p ps=0u w=1e+06u l=300000u
X85 VDD.t2162 A[1].t1 a_14660_24431.t3 w_13784_25088# sky130_fd_pr__pfet_01v8 ad=0p pd=0u as=0p ps=0u w=1e+06u l=300000u
X86 VDD.t2163 A[1].t2 a_14248_24457.t1 w_13784_25088# sky130_fd_pr__pfet_01v8 ad=0p pd=0u as=0p ps=0u w=2e+06u l=300000u
X87 a_29238_24456.t11 a_27458_24456.t8 VDD.t1014 w_26876_25087# sky130_fd_pr__pfet_01v8 ad=0p pd=0u as=0p ps=0u w=2e+06u l=300000u
X88 a_17941_3397.t3 a_17351_3834.t7 VDD.t1030 VDD.t1029 sky130_fd_pr__pfet_01v8 ad=0p pd=0u as=0p ps=0u w=1e+06u l=300000u
X89 VSS.t209 a_7939_4129.t8 a_12828_3395.t0 VSS sky130_fd_pr__nfet_01v8 ad=0p pd=0u as=0p ps=0u w=2e+06u l=300000u
X90 a_31891_13791.t4 a_7947_9909.t9 VDD.t2178 VDD.t2177 sky130_fd_pr__pfet_01v8 ad=0p pd=0u as=0p ps=0u w=2e+06u l=300000u
X91 a_28902_27292.t3 a_26157_25329.t4 a_29020_27292.t5 w_28866_27230# sky130_fd_pr__pfet_01v8 ad=0p pd=0u as=0p ps=0u w=2e+06u l=300000u
X92 VDD.t721 a_7749_6382.t4 a_10693_12957.t4 VDD.t720 sky130_fd_pr__pfet_01v8 ad=0p pd=0u as=0p ps=0u w=1e+06u l=300000u
X93 VDD.t1975 a_28608_18536.t8 a_27000_21662.t2 w_28514_18500# sky130_fd_pr__pfet_01v8 ad=0p pd=0u as=0p ps=0u w=1e+06u l=300000u
X94 a_n3111_15192.t3 opcode[0].t3 a_n2379_15428.t0 VSS sky130_fd_pr__nfet_01v8 ad=0p pd=0u as=0p ps=0u w=2e+06u l=300000u
X95 VDD.t1429 a_4963_19248.t7 a_4965_19545.t3 w_4929_19483# sky130_fd_pr__pfet_01v8 ad=0p pd=0u as=0p ps=0u w=1e+06u l=300000u
X96 VDD.t2396 a_29769_12318.t8 a_30359_11881.t2 VDD.t2395 sky130_fd_pr__pfet_01v8 ad=0p pd=0u as=0p ps=0u w=1e+06u l=300000u
X97 a_24568_5002.t0 a_23978_5439.t7 VSS.t214 VSS sky130_fd_pr__nfet_01v8 ad=0p pd=0u as=0p ps=0u w=1e+06u l=300000u
X98 a_n3808_4793.t5 a_n3608_4192.t4 a_n3115_4850.t2 VDD.t1366 sky130_fd_pr__pfet_01v8 ad=0p pd=0u as=0p ps=0u w=2e+06u l=300000u
X99 a_7611_12745.t4 a_4748_10782.t4 a_7493_12745.t4 VDD.t761 sky130_fd_pr__pfet_01v8 ad=0p pd=0u as=0p ps=0u w=2e+06u l=300000u
X100 a_5860_19519.t4 a_6863_19545.t4 a_7403_18852.t11 w_4929_19483# sky130_fd_pr__pfet_01v8 ad=0p pd=0u as=0p ps=0u w=2e+06u l=300000u
X101 a_29356_24456.t6 a_28811_25149.t4 a_29238_24456.t6 w_26876_25087# sky130_fd_pr__pfet_01v8 ad=0p pd=0u as=0p ps=0u w=2e+06u l=300000u
X102 a_38088_23722.t0 a_9751_24460.t8 VSS.t192 VSS sky130_fd_pr__nfet_01v8 ad=0p pd=0u as=0p ps=0u w=2e+06u l=300000u
X103 VDD.t854 B[3].t0 a_1243_4513.t6 VDD.t853 sky130_fd_pr__pfet_01v8 ad=0p pd=0u as=0p ps=0u w=1e+06u l=300000u
X104 a_4734_12432.t0 a_4144_12869.t7 VSS.t304 VSS sky130_fd_pr__nfet_01v8 ad=0p pd=0u as=0p ps=0u w=1e+06u l=300000u
X105 a_32009_13791.t4 a_31464_14484.t5 a_31891_13791.t8 VDD.t1790 sky130_fd_pr__pfet_01v8 ad=0p pd=0u as=0p ps=0u w=2e+06u l=300000u
X106 VDD.t1298 a_21202_27284.t5 a_21466_26701.t0 w_21166_27222# sky130_fd_pr__pfet_01v8 ad=0p pd=0u as=0p ps=0u w=1e+06u l=300000u
X107 a_21027_4128.t6 a_19247_4128.t8 VDD.t869 VDD.t868 sky130_fd_pr__pfet_01v8 ad=0p pd=0u as=0p ps=0u w=2e+06u l=300000u
X108 a_7829_9909.t7 a_7402_10602.t4 a_7947_9909.t3 VDD.t764 sky130_fd_pr__pfet_01v8 ad=0p pd=0u as=0p ps=0u w=2e+06u l=300000u
X109 a_30074_3658.t0 A[4].t1 a_29837_4295.t1 VSS sky130_fd_pr__nfet_01v8 ad=0p pd=0u as=0p ps=0u w=2e+06u l=300000u
X110 a_4381_12232.t1 a_1844_12699.t4 a_4144_12869.t3 VSS sky130_fd_pr__nfet_01v8 ad=0p pd=0u as=0p ps=0u w=2e+06u l=300000u
X111 VDD.t1422 a_4963_19248.t8 a_8998_20136.t1 w_8904_20100# sky130_fd_pr__pfet_01v8 ad=0p pd=0u as=0p ps=0u w=1e+06u l=300000u
X112 VSS.t271 a_20900_24452.t8 a_22253_25145.t0 VSS sky130_fd_pr__nfet_01v8 ad=0p pd=0u as=0p ps=0u w=1e+06u l=300000u
X113 a_25504_21666.t3 a_26571_21032.t5 VDD.t443 w_26477_21043# sky130_fd_pr__pfet_01v8 ad=0p pd=0u as=0p ps=0u w=1e+06u l=300000u
X114 VDD.t2503 A[3].t2 a_27340_24456.t2 w_26876_25087# sky130_fd_pr__pfet_01v8 ad=0p pd=0u as=0p ps=0u w=2e+06u l=300000u
X115 a_15928_27293.t5 a_13065_25330.t4 a_15810_27293.t1 w_15774_27231# sky130_fd_pr__pfet_01v8 ad=0p pd=0u as=0p ps=0u w=2e+06u l=300000u
X116 a_27420_18830.t3 a_n3113_6918.t9 VDD.t1402 w_24534_19487# sky130_fd_pr__pfet_01v8 ad=0p pd=0u as=0p ps=0u w=1e+06u l=300000u
X117 VSS.t177 a_24568_19252.t4 a_24570_19549.t0 VSS sky130_fd_pr__nfet_01v8 ad=0p pd=0u as=0p ps=0u w=1e+06u l=300000u
X118 a_4144_12869.t1 a_1836_10114.t5 VDD.t1660 VDD.t1659 sky130_fd_pr__pfet_01v8 ad=0p pd=0u as=0p ps=0u w=1e+06u l=300000u
X119 a_7402_10602.t0 a_6049_9909.t8 VDD.t1302 VDD.t1301 sky130_fd_pr__pfet_01v8 ad=0p pd=0u as=0p ps=0u w=1e+06u l=300000u
X120 a_36751_1089.t11 opcode[1].t1 VDD.t1479 VDD.t1478 sky130_fd_pr__pfet_01v8 ad=0p pd=0u as=0p ps=0u w=2e+06u l=300000u
X121 a_18991_21663.t1 a_20058_21029.t7 VDD.t2441 w_19964_21040# sky130_fd_pr__pfet_01v8 ad=0p pd=0u as=0p ps=0u w=1e+06u l=300000u
X122 VDD.t2180 a_7947_9909.t10 a_33375_14481.t6 VDD.t2179 sky130_fd_pr__pfet_01v8 ad=0p pd=0u as=0p ps=0u w=1e+06u l=300000u
X123 VDD.t1610 A[4].t2 a_28617_21790.t3 w_28523_21754# sky130_fd_pr__pfet_01v8 ad=0p pd=0u as=0p ps=0u w=1e+06u l=300000u
X124 a_5505_18852.t5 a_5917_18826.t4 a_5623_18852.t6 w_4929_19483# sky130_fd_pr__pfet_01v8 ad=0p pd=0u as=0p ps=0u w=2e+06u l=300000u
X125 a_12181_18848.t6 a_12475_18822.t5 a_12063_18848.t7 w_11487_19479# sky130_fd_pr__pfet_01v8 ad=0p pd=0u as=0p ps=0u w=2e+06u l=300000u
X126 VDD.t1662 a_1836_10114.t6 a_4158_11219.t3 VDD.t1661 sky130_fd_pr__pfet_01v8 ad=0p pd=0u as=0p ps=0u w=1e+06u l=300000u
X127 a_5824_21032.t4 a_6253_21662.t4 a_5959_21688.t3 w_5730_21043# sky130_fd_pr__pfet_01v8 ad=0p pd=0u as=0p ps=0u w=2e+06u l=300000u
X128 a_6343_9883.t3 a_1844_12699.t5 VDD.t1437 VDD.t1436 sky130_fd_pr__pfet_01v8 ad=0p pd=0u as=0p ps=0u w=1e+06u l=300000u
X129 a_n3804_10998.t2 a_n3604_10397.t4 a_n3111_11055.t2 VDD.t923 sky130_fd_pr__pfet_01v8 ad=0p pd=0u as=0p ps=0u w=2e+06u l=300000u
X130 a_16146_24457.t4 a_15719_25150.t5 a_16264_24457.t2 w_13784_25088# sky130_fd_pr__pfet_01v8 ad=0p pd=0u as=0p ps=0u w=2e+06u l=300000u
X131 a_12517_21684.t5 a_12811_21658.t4 a_12382_21028.t4 w_12288_21039# sky130_fd_pr__pfet_01v8 ad=0p pd=0u as=0p ps=0u w=2e+06u l=300000u
X132 a_13060_23726.t1 a_12470_24163.t9 VDD.t2234 w_12316_24101# sky130_fd_pr__pfet_01v8 ad=0p pd=0u as=0p ps=0u w=1e+06u l=300000u
X133 a_n3113_13124.t4 a_n3606_12466.t4 a_n3806_13067.t5 VDD.t767 sky130_fd_pr__pfet_01v8 ad=0p pd=0u as=0p ps=0u w=2e+06u l=300000u
X134 VDD.t569 a_n3111_11055.t8 a_20355_25145.t3 w_20318_25083# sky130_fd_pr__pfet_01v8 ad=0p pd=0u as=0p ps=0u w=1e+06u l=300000u
X135 a_10930_12320.t0 a_8508_14599.t6 a_10693_12957.t0 VSS sky130_fd_pr__nfet_01v8 ad=0p pd=0u as=0p ps=0u w=2e+06u l=300000u
X136 a_5923_4129.t9 a_1833_4076.t5 VDD.t1690 VDD.t1689 sky130_fd_pr__pfet_01v8 ad=0p pd=0u as=0p ps=0u w=2e+06u l=300000u
X137 VDD.t2127 A[5].t2 a_22104_21787.t6 w_22010_21751# sky130_fd_pr__pfet_01v8 ad=0p pd=0u as=0p ps=0u w=1e+06u l=300000u
X138 a_1836_10114.t3 a_1246_10551.t7 VDD.t2066 VDD.t2065 sky130_fd_pr__pfet_01v8 ad=0p pd=0u as=0p ps=0u w=1e+06u l=300000u
X139 a_14660_24431.t2 A[1].t3 VDD.t2164 w_13784_25088# sky130_fd_pr__pfet_01v8 ad=0p pd=0u as=0p ps=0u w=1e+06u l=300000u
X140 VDD.t1433 a_8998_20136.t7 a_6253_21662.t3 w_8904_20100# sky130_fd_pr__pfet_01v8 ad=0p pd=0u as=0p ps=0u w=1e+06u l=300000u
X141 VDD.t1015 a_27458_24456.t9 a_29238_24456.t10 w_26876_25087# sky130_fd_pr__pfet_01v8 ad=0p pd=0u as=0p ps=0u w=2e+06u l=300000u
X142 a_29837_4295.t4 A[4].t3 VDD.t1612 VDD.t1611 sky130_fd_pr__pfet_01v8 ad=0p pd=0u as=0p ps=0u w=1e+06u l=300000u
X143 VDD.t1957 a_30359_11881.t4 a_31891_13791.t9 VDD.t1956 sky130_fd_pr__pfet_01v8 ad=0p pd=0u as=0p ps=0u w=2e+06u l=300000u
X144 a_29020_27292.t4 a_26157_25329.t5 a_28902_27292.t2 w_28866_27230# sky130_fd_pr__pfet_01v8 ad=0p pd=0u as=0p ps=0u w=2e+06u l=300000u
X145 a_15097_1774.t0 a_14507_1337.t8 VSS.t376 VSS sky130_fd_pr__nfet_01v8 ad=0p pd=0u as=0p ps=0u w=1e+06u l=300000u
X146 a_11291_5000.t3 a_10701_5437.t7 VDD.t1292 VDD.t1291 sky130_fd_pr__pfet_01v8 ad=0p pd=0u as=0p ps=0u w=1e+06u l=300000u
X147 a_28608_18536.t0 a_24568_19252.t5 VDD.t911 w_28514_18500# sky130_fd_pr__pfet_01v8 ad=0p pd=0u as=0p ps=0u w=1e+06u l=300000u
X148 VSS.t161 a_26468_19549.t4 a_27126_18124.t0 VSS sky130_fd_pr__nfet_01v8 ad=0p pd=0u as=0p ps=0u w=2e+06u l=300000u
X149 VDD.t1036 a_7939_4129.t9 a_12886_4101.t0 VDD.t1035 sky130_fd_pr__pfet_01v8 ad=0p pd=0u as=0p ps=0u w=1e+06u l=300000u
X150 a_4965_19545.t2 a_4963_19248.t9 VDD.t1428 w_4929_19483# sky130_fd_pr__pfet_01v8 ad=0p pd=0u as=0p ps=0u w=1e+06u l=300000u
X151 VDD.t2562 a_11521_19244.t5 a_11523_19541.t3 w_11487_19479# sky130_fd_pr__pfet_01v8 ad=0p pd=0u as=0p ps=0u w=1e+06u l=300000u
X152 a_36755_10391.t5 a_36701_11276.t4 a_36755_10509.t9 VDD.t882 sky130_fd_pr__pfet_01v8 ad=0p pd=0u as=0p ps=0u w=2e+06u l=300000u
X153 a_30359_11881.t1 a_29769_12318.t9 VDD.t2398 VDD.t2397 sky130_fd_pr__pfet_01v8 ad=0p pd=0u as=0p ps=0u w=1e+06u l=300000u
X154 VDD.t2144 a_14490_4127.t9 a_33377_2547.t2 VDD.t2143 sky130_fd_pr__pfet_01v8 ad=0p pd=0u as=0p ps=0u w=1e+06u l=300000u
X155 a_21145_4128.t0 a_20600_4821.t4 a_21145_3396.t0 VSS sky130_fd_pr__nfet_01v8 ad=0p pd=0u as=0p ps=0u w=2e+06u l=300000u
X156 VDD.t680 a_8543_1769.t4 a_12047_4820.t3 VDD.t679 sky130_fd_pr__pfet_01v8 ad=0p pd=0u as=0p ps=0u w=1e+06u l=300000u
X157 VDD.t2128 A[5].t3 a_20495_18853.t11 w_18021_19484# sky130_fd_pr__pfet_01v8 ad=0p pd=0u as=0p ps=0u w=2e+06u l=300000u
X158 a_n3806_13067.t7 B[1].t0 VDD.t704 VDD.t703 sky130_fd_pr__pfet_01v8 ad=0p pd=0u as=0p ps=0u w=2e+06u l=300000u
X159 a_28061_4103.t3 a_23918_5413.t5 VDD.t2236 VDD.t2235 sky130_fd_pr__pfet_01v8 ad=0p pd=0u as=0p ps=0u w=1e+06u l=300000u
X160 a_19134_9929.t2 a_14496_9997.t9 VDD.t2372 VDD.t2371 sky130_fd_pr__pfet_01v8 ad=0p pd=0u as=0p ps=0u w=2e+06u l=300000u
X161 a_36755_19987.t5 a_36701_20754.t4 a_36755_19869.t5 VDD.t589 sky130_fd_pr__pfet_01v8 ad=0p pd=0u as=0p ps=0u w=2e+06u l=300000u
X162 VDD.t2262 a_7853_24460.t8 a_9206_25153.t3 w_7271_25091# sky130_fd_pr__pfet_01v8 ad=0p pd=0u as=0p ps=0u w=1e+06u l=300000u
X163 a_23973_3835.t6 a_21145_4128.t8 VDD.t1573 VDD.t1572 sky130_fd_pr__pfet_01v8 ad=0p pd=0u as=0p ps=0u w=1e+06u l=300000u
X164 a_25869_3397.t0 a_26163_4103.t4 VSS.t250 VSS sky130_fd_pr__nfet_01v8 ad=0p pd=0u as=0p ps=0u w=2e+06u l=300000u
X165 VDD.t1283 a_36755_7247.t8 Y[5].t3 VDD.t1282 sky130_fd_pr__pfet_01v8 ad=0p pd=0u as=0p ps=0u w=1e+06u l=300000u
X166 a_20809_6964.t5 a_19813_6377.t4 VDD.t1118 VDD.t1117 sky130_fd_pr__pfet_01v8 ad=0p pd=0u as=0p ps=0u w=2e+06u l=300000u
X167 a_8147_24434.t0 A[0].t0 VSS.t218 VSS sky130_fd_pr__nfet_01v8 ad=0p pd=0u as=0p ps=0u w=1e+06u l=300000u
X168 VDD.t1341 a_1817_6836.t4 a_5923_4129.t10 VDD.t1340 sky130_fd_pr__pfet_01v8 ad=0p pd=0u as=0p ps=0u w=2e+06u l=300000u
X169 VDD.t1155 B[0].t0 a_n3604_14534.t3 VDD.t1154 sky130_fd_pr__pfet_01v8 ad=0p pd=0u as=0p ps=0u w=1e+06u l=300000u
X170 a_27340_24456.t1 A[3].t3 VDD.t2504 w_26876_25087# sky130_fd_pr__pfet_01v8 ad=0p pd=0u as=0p ps=0u w=2e+06u l=300000u
X171 VDD.t237 a_14932_26706.t4 a_15928_27293.t0 w_15774_27231# sky130_fd_pr__pfet_01v8 ad=0p pd=0u as=0p ps=0u w=2e+06u l=300000u
X172 VDD.t1316 a_21746_1762.t4 a_23978_5439.t6 VDD.t1315 sky130_fd_pr__pfet_01v8 ad=0p pd=0u as=0p ps=0u w=1e+06u l=300000u
X173 VSS.t318 a_15097_1774.t4 a_17593_4801.t0 VSS sky130_fd_pr__nfet_01v8 ad=0p pd=0u as=0p ps=0u w=2e+06u l=300000u
X174 VDD.t689 a_22095_18533.t7 a_20487_21659.t3 w_22001_18497# sky130_fd_pr__pfet_01v8 ad=0p pd=0u as=0p ps=0u w=1e+06u l=300000u
X175 a_24568_19252.t0 a_28902_27292.t5 VSS.t205 VSS sky130_fd_pr__nfet_01v8 ad=0p pd=0u as=0p ps=0u w=1e+06u l=300000u
X176 VDD.t1664 a_1836_10114.t7 a_4144_12869.t0 VDD.t1663 sky130_fd_pr__pfet_01v8 ad=0p pd=0u as=0p ps=0u w=1e+06u l=300000u
X177 VDD.t1304 a_6049_9909.t9 a_7402_10602.t1 VDD.t1303 sky130_fd_pr__pfet_01v8 ad=0p pd=0u as=0p ps=0u w=1e+06u l=300000u
X178 a_14490_4127.t1 a_13945_4820.t4 a_14372_4127.t3 VDD.t636 sky130_fd_pr__pfet_01v8 ad=0p pd=0u as=0p ps=0u w=2e+06u l=300000u
X179 a_19252_9929.t3 a_18707_10622.t4 a_19134_9929.t6 VDD.t1100 sky130_fd_pr__pfet_01v8 ad=0p pd=0u as=0p ps=0u w=2e+06u l=300000u
X180 a_36697_5000.t3 opcode[1].t2 VDD.t1481 VDD.t1480 sky130_fd_pr__pfet_01v8 ad=0p pd=0u as=0p ps=0u w=1e+06u l=300000u
X181 a_28069_9971.t3 a_23926_11281.t4 VDD.t1262 VDD.t1261 sky130_fd_pr__pfet_01v8 ad=0p pd=0u as=0p ps=0u w=1e+06u l=300000u
X182 a_33375_14481.t5 a_7947_9909.t11 VDD.t2182 VDD.t2181 sky130_fd_pr__pfet_01v8 ad=0p pd=0u as=0p ps=0u w=1e+06u l=300000u
X183 a_28617_21790.t2 A[4].t4 VDD.t1613 w_28523_21754# sky130_fd_pr__pfet_01v8 ad=0p pd=0u as=0p ps=0u w=1e+06u l=300000u
X184 VDD.t1240 a_27775_9997.t8 a_36751_4233.t11 VDD.t1239 sky130_fd_pr__pfet_01v8 ad=0p pd=0u as=0p ps=0u w=2e+06u l=300000u
X185 a_5959_21688.t4 a_6253_21662.t5 a_5824_21032.t3 w_5730_21043# sky130_fd_pr__pfet_01v8 ad=0p pd=0u as=0p ps=0u w=2e+06u l=300000u
X186 a_16264_24457.t3 a_15719_25150.t6 a_16146_24457.t3 w_13784_25088# sky130_fd_pr__pfet_01v8 ad=0p pd=0u as=0p ps=0u w=2e+06u l=300000u
X187 VDD.t553 a_32011_9700.t8 a_36755_19987.t6 VDD.t552 sky130_fd_pr__pfet_01v8 ad=0p pd=0u as=0p ps=0u w=2e+06u l=300000u
X188 a_21136_23720.t0 a_n3111_11055.t9 a_20900_24452.t3 VSS sky130_fd_pr__nfet_01v8 ad=0p pd=0u as=0p ps=0u w=2e+06u l=300000u
X189 a_22608_26705.t3 a_22344_27288.t5 VDD.t1140 w_22308_27226# sky130_fd_pr__pfet_01v8 ad=0p pd=0u as=0p ps=0u w=1e+06u l=300000u
X190 a_19252_9197.t1 a_19546_9903.t4 VSS.t245 VSS sky130_fd_pr__nfet_01v8 ad=0p pd=0u as=0p ps=0u w=2e+06u l=300000u
X191 a_24568_5002.t3 a_23978_5439.t8 VDD.t1059 VDD.t1058 sky130_fd_pr__pfet_01v8 ad=0p pd=0u as=0p ps=0u w=1e+06u l=300000u
X192 VDD.t1094 A[0].t1 a_5948_27420.t6 w_5794_27358# sky130_fd_pr__pfet_01v8 ad=0p pd=0u as=0p ps=0u w=1e+06u l=300000u
X193 a_12892_9971.t0 a_8508_14599.t7 VSS.t361 VSS sky130_fd_pr__nfet_01v8 ad=0p pd=0u as=0p ps=0u w=1e+06u l=300000u
X194 a_32011_5473.t1 a_32305_6179.t4 VSS.t48 VSS sky130_fd_pr__nfet_01v8 ad=0p pd=0u as=0p ps=0u w=2e+06u l=300000u
X195 VDD.t1575 a_21145_4128.t9 a_26163_4103.t3 VDD.t1574 sky130_fd_pr__pfet_01v8 ad=0p pd=0u as=0p ps=0u w=1e+06u l=300000u
X196 a_14496_9997.t5 a_13951_10690.t5 a_14378_9997.t9 VDD.t2353 sky130_fd_pr__pfet_01v8 ad=0p pd=0u as=0p ps=0u w=2e+06u l=300000u
X197 VDD.t2568 a_21150_9929.t9 a_31893_6205.t8 VDD.t2567 sky130_fd_pr__pfet_01v8 ad=0p pd=0u as=0p ps=0u w=2e+06u l=300000u
X198 a_26157_25329.t1 a_25567_25766.t7 VDD.t1170 w_25413_25704# sky130_fd_pr__pfet_01v8 ad=0p pd=0u as=0p ps=0u w=1e+06u l=300000u
X199 VDD.t871 a_19247_4128.t9 a_20600_4821.t3 VDD.t870 sky130_fd_pr__pfet_01v8 ad=0p pd=0u as=0p ps=0u w=1e+06u l=300000u
X200 VSS.t339 a_16074_26710.t4 a_19241_23521.t1 VSS sky130_fd_pr__nfet_01v8 ad=0p pd=0u as=0p ps=0u w=2e+06u l=300000u
X201 VDD.t1271 B[7].t0 a_n3608_55.t0 VDD.t1270 sky130_fd_pr__pfet_01v8 ad=0p pd=0u as=0p ps=0u w=1e+06u l=300000u
X202 a_36755_7365.t7 opcode[1].t3 VDD.t1483 VDD.t1482 sky130_fd_pr__pfet_01v8 ad=0p pd=0u as=0p ps=0u w=2e+06u l=300000u
X203 a_27878_27288.t5 a_26152_23725.t4 a_27760_27288.t4 w_27724_27226# sky130_fd_pr__pfet_01v8 ad=0p pd=0u as=0p ps=0u w=2e+06u l=300000u
X204 a_20495_18853.t10 A[5].t4 VDD.t2129 w_18021_19484# sky130_fd_pr__pfet_01v8 ad=0p pd=0u as=0p ps=0u w=2e+06u l=300000u
X205 VDD.t2374 a_14496_9997.t10 a_19134_9929.t1 VDD.t2373 sky130_fd_pr__pfet_01v8 ad=0p pd=0u as=0p ps=0u w=2e+06u l=300000u
X206 a_n3113_13124.t1 opcode[0].t4 a_n2381_13360.t0 VSS sky130_fd_pr__nfet_01v8 ad=0p pd=0u as=0p ps=0u w=2e+06u l=300000u
X207 a_6041_3397.t0 a_6335_4103.t4 VSS.t159 VSS sky130_fd_pr__nfet_01v8 ad=0p pd=0u as=0p ps=0u w=2e+06u l=300000u
X208 a_9206_25153.t2 a_7853_24460.t9 VDD.t2263 w_7271_25091# sky130_fd_pr__pfet_01v8 ad=0p pd=0u as=0p ps=0u w=1e+06u l=300000u
X209 a_36755_23131.t3 a_9751_24460.t9 a_36755_23013.t4 VDD.t967 sky130_fd_pr__pfet_01v8 ad=0p pd=0u as=0p ps=0u w=2e+06u l=300000u
X210 a_5917_18826.t3 a_5860_19519.t9 VSS.t197 VSS sky130_fd_pr__nfet_01v8 ad=0p pd=0u as=0p ps=0u w=1e+06u l=300000u
X211 VDD.t2525 a_17301_11213.t5 a_17356_9635.t5 VDD.t2524 sky130_fd_pr__pfet_01v8 ad=0p pd=0u as=0p ps=0u w=1e+06u l=300000u
X212 a_15928_27293.t1 a_14932_26706.t5 VDD.t238 w_15774_27231# sky130_fd_pr__pfet_01v8 ad=0p pd=0u as=0p ps=0u w=2e+06u l=300000u
X213 a_17579_6451.t1 a_14306_12250.t4 a_17342_7088.t3 VSS sky130_fd_pr__nfet_01v8 ad=0p pd=0u as=0p ps=0u w=2e+06u l=300000u
X214 a_5962_25770.t3 opcode[0].t5 VDD.t1810 w_5808_25708# sky130_fd_pr__pfet_01v8 ad=0p pd=0u as=0p ps=0u w=1e+06u l=300000u
X215 a_36697_17622.t3 opcode[1].t4 VDD.t1485 VDD.t1484 sky130_fd_pr__pfet_01v8 ad=0p pd=0u as=0p ps=0u w=1e+06u l=300000u
X216 a_36755_7247.t4 a_36701_8132.t4 a_36755_7365.t9 VDD.t1086 sky130_fd_pr__pfet_01v8 ad=0p pd=0u as=0p ps=0u w=2e+06u l=300000u
X217 a_4734_12432.t3 a_4144_12869.t8 VDD.t1648 VDD.t1647 sky130_fd_pr__pfet_01v8 ad=0p pd=0u as=0p ps=0u w=1e+06u l=300000u
X218 VDD.t81 a_12894_6959.t5 a_13158_6376.t3 VDD.t80 sky130_fd_pr__pfet_01v8 ad=0p pd=0u as=0p ps=0u w=1e+06u l=300000u
X219 a_19667_6960.t5 a_17941_3397.t4 a_19549_6960.t4 VDD.t1033 sky130_fd_pr__pfet_01v8 ad=0p pd=0u as=0p ps=0u w=2e+06u l=300000u
X220 VDD.t1264 a_23926_11281.t5 a_28069_9971.t2 VDD.t1263 sky130_fd_pr__pfet_01v8 ad=0p pd=0u as=0p ps=0u w=1e+06u l=300000u
X221 VDD.t1614 A[4].t5 a_28617_21790.t1 w_28523_21754# sky130_fd_pr__pfet_01v8 ad=0p pd=0u as=0p ps=0u w=1e+06u l=300000u
X222 VDD.t682 a_8543_1769.t5 a_12474_4127.t0 VDD.t681 sky130_fd_pr__pfet_01v8 ad=0p pd=0u as=0p ps=0u w=2e+06u l=300000u
X223 a_27340_24456.t5 a_27752_24430.t4 a_27458_24456.t3 w_26876_25087# sky130_fd_pr__pfet_01v8 ad=0p pd=0u as=0p ps=0u w=2e+06u l=300000u
X224 a_36701_23898.t3 opcode[1].t5 VDD.t1487 VDD.t1486 sky130_fd_pr__pfet_01v8 ad=0p pd=0u as=0p ps=0u w=1e+06u l=300000u
X225 a_31893_1857.t0 a_32305_1831.t4 a_32011_1857.t1 VDD.t283 sky130_fd_pr__pfet_01v8 ad=0p pd=0u as=0p ps=0u w=2e+06u l=300000u
X226 a_26571_21032.t0 a_26646_21662.t4 VSS.t128 VSS sky130_fd_pr__nfet_01v8 ad=0p pd=0u as=0p ps=0u w=1e+06u l=300000u
X227 VDD.t610 a_4090_5413.t4 a_4145_3835.t1 VDD.t609 sky130_fd_pr__pfet_01v8 ad=0p pd=0u as=0p ps=0u w=1e+06u l=300000u
X228 VSS.t127 A[2].t0 a_21136_23720.t1 VSS sky130_fd_pr__nfet_01v8 ad=0p pd=0u as=0p ps=0u w=2e+06u l=300000u
X229 a_24576_10870.t0 a_23986_11307.t7 VSS.t96 VSS sky130_fd_pr__nfet_01v8 ad=0p pd=0u as=0p ps=0u w=1e+06u l=300000u
X230 VDD.t138 a_1254_13136.t7 a_1844_12699.t0 VDD.t137 sky130_fd_pr__pfet_01v8 ad=0p pd=0u as=0p ps=0u w=1e+06u l=300000u
X231 a_27321_12833.t3 a_24576_10870.t4 VSS.t251 VSS sky130_fd_pr__nfet_01v8 ad=0p pd=0u as=0p ps=0u w=1e+06u l=300000u
X232 a_14154_6963.t5 a_11291_5000.t4 a_14036_6963.t4 VDD.t896 sky130_fd_pr__pfet_01v8 ad=0p pd=0u as=0p ps=0u w=2e+06u l=300000u
X233 a_5948_27420.t5 A[0].t2 VDD.t1095 w_5794_27358# sky130_fd_pr__pfet_01v8 ad=0p pd=0u as=0p ps=0u w=1e+06u l=300000u
X234 a_n3606_3562.t3 opcode[0].t6 VDD.t1812 VDD.t1811 sky130_fd_pr__pfet_01v8 ad=0p pd=0u as=0p ps=0u w=1e+06u l=300000u
X235 a_22798_23720.t1 a_23092_24426.t4 VSS.t220 VSS sky130_fd_pr__nfet_01v8 ad=0p pd=0u as=0p ps=0u w=2e+06u l=300000u
X236 a_n3113_6918.t1 a_n3606_6260.t4 a_n3806_6861.t5 VDD.t308 sky130_fd_pr__pfet_01v8 ad=0p pd=0u as=0p ps=0u w=2e+06u l=300000u
X237 VDD.t645 a_12418_19515.t8 a_12063_18848.t0 w_11487_19479# sky130_fd_pr__pfet_01v8 ad=0p pd=0u as=0p ps=0u w=2e+06u l=300000u