* NGSPICE file created from carry_ripple_adder_pex.ext - technology: sky130B

.subckt carry_ripple_adder A[0],A[1],A[2],A[3],A[4],A[5],A[6],A[7] B[0],B[1],B[2],B[3],B[4],B[5],B[6],B[7] carry_in VDD VSS Y[0],Y[1],Y[2],Y[3],Y[4],Y[5],Y[6],Y[7] carry_out

X0 VDD.t151 a_7564_3012# a_8154_2575# w_7410_2950# sky130_fd_pr__pfet_01v8 ad=0p pd=0u as=5.8e+11p ps=5.16e+06u w=1e+06u l=300000u
X1 a_22002_2394# B[3].t0 VDD.t425 w_21965_2332# sky130_fd_pr__pfet_01v8 ad=5.8e+11p pd=5.16e+06u as=0p ps=0u w=1e+06u l=300000u
X2 a_19659_n3206# a_19657_n3503.t4 VDD.t200 w_19623_n3268# sky130_fd_pr__pfet_01v8 ad=5.8e+11p pd=5.16e+06u as=0p ps=0u w=1e+06u l=300000u
X3 a_17433_4533# a_14688_2570# a_17551_4533# w_17397_4471# sky130_fd_pr__pfet_01v8 ad=1.16e+12p pd=9.16e+06u as=1.74e+12p ps=1.374e+07u w=2e+06u l=300000u
X4 VDD.t81 a_1046_1411# a_1636_974# w_892_1349# sky130_fd_pr__pfet_01v8 ad=0p pd=0u as=5.8e+11p ps=5.16e+06u w=1e+06u l=300000u
X5 VDD.t308 a_15222_n1096# a_15282_n1070# w_15053_n1715# sky130_fd_pr__pfet_01v8 ad=0p pd=0u as=1.74e+12p ps=1.374e+07u w=2e+06u l=300000u
X6 VDD.t137 a_4101_n969# a_2130_n1097# w_4007_n1005# sky130_fd_pr__pfet_01v8 ad=0p pd=0u as=5.8e+11p ps=5.16e+06u w=1e+06u l=300000u
X7 VDD.t9 a_20593_n1089# a_20653_n1063# w_20424_n1708# sky130_fd_pr__pfet_01v8 ad=0p pd=0u as=1.74e+12p ps=1.374e+07u w=2e+06u l=300000u
X8 VSS.t156 B[0].t0 a_1274_4028# a_1596_n2079# sky130_fd_pr__nfet_01v8 ad=0p pd=0u as=5.8e+11p ps=4.58e+06u w=2e+06u l=300000u
X9 a_9749_1676# A[1].t0 VSS.t62 a_1596_n2079# sky130_fd_pr__nfet_01v8 ad=2.9e+11p pd=2.58e+06u as=0p ps=0u w=1e+06u l=300000u
X10 a_4741_n4834# a_52_n3507.t4 VSS.t84 a_1596_n2079# sky130_fd_pr__nfet_01v8 ad=5.8e+11p pd=4.58e+06u as=0p ps=0u w=2e+06u l=300000u
X11 a_4087_n2619# a_52_n3507.t5 a_4736_n3230# a_1596_n2079# sky130_fd_pr__nfet_01v8 ad=5.8e+11p pd=4.58e+06u as=5.8e+11p ps=4.58e+06u w=2e+06u l=300000u
X12 a_21660_n1723# a_21735_n1093# VSS.t68 a_1596_n2079# sky130_fd_pr__nfet_01v8 ad=2.9e+11p pd=2.58e+06u as=0p ps=0u w=1e+06u l=300000u
X13 a_3244_4537# a_1636_974# a_3362_4537# w_3208_4475# sky130_fd_pr__pfet_01v8 ad=1.16e+12p pd=9.16e+06u as=1.74e+12p ps=1.374e+07u w=2e+06u l=300000u
X14 a_17551_4533# a_16555_3946# VDD.t478 w_17397_4471# sky130_fd_pr__pfet_01v8 ad=0p pd=0u as=0p ps=0u w=2e+06u l=300000u
X15 a_5134_1679# carry_in.t0 VDD.t354 w_2360_2336# sky130_fd_pr__pfet_01v8 ad=5.8e+11p pd=5.16e+06u as=0p ps=0u w=1e+06u l=300000u
X16 VSS.t154 a_4087_n2619# a_1342_n1093# a_1596_n2079# sky130_fd_pr__nfet_01v8 ad=0p pd=0u as=2.9e+11p ps=2.58e+06u w=1e+06u l=300000u
X17 a_23706_n965# B[4].t0 VDD.t342 w_23612_n1001# sky130_fd_pr__pfet_01v8 ad=8.7e+11p pd=7.74e+06u as=0p ps=0u w=1e+06u l=300000u
X18 Y[7].t3 a_54_n3210# a_594_n3903# w_18_n3272# sky130_fd_pr__pfet_01v8 ad=0p pd=0u as=4.06e+12p ps=3.206e+07u w=2e+06u l=300000u
X19 VSS.t157 B[0].t1 a_2397_2398# a_1596_n2079# sky130_fd_pr__nfet_01v8 ad=0p pd=0u as=2.9e+11p ps=2.58e+06u w=1e+06u l=300000u
X20 a_7559_1408# A[1].t1 VDD.t232 w_7405_1346# sky130_fd_pr__pfet_01v8 ad=8.7e+11p pd=7.74e+06u as=0p ps=0u w=1e+06u l=300000u
X21 a_5134_1679# carry_in.t1 VSS.t110 a_1596_n2079# sky130_fd_pr__nfet_01v8 ad=2.9e+11p pd=2.58e+06u as=0p ps=0u w=1e+06u l=300000u
X22 VDD.t414 a_19657_n3503.t5 a_19659_n3206# w_19623_n3268# sky130_fd_pr__pfet_01v8 ad=0p pd=0u as=0p ps=0u w=1e+06u l=300000u
X23 VDD.t477 a_16555_3946# a_17551_4533# w_17397_4471# sky130_fd_pr__pfet_01v8 ad=0p pd=0u as=0p ps=0u w=2e+06u l=300000u
X24 VDD.t64 a_9455_1702.t8 a_11235_1702# w_8873_2333# sky130_fd_pr__pfet_01v8 ad=0p pd=0u as=4.06e+12p ps=3.206e+07u w=2e+06u l=300000u
X25 a_18181_1671# a_11163_3955.t4 VDD.t16 w_15407_2328# sky130_fd_pr__pfet_01v8 ad=5.8e+11p pd=5.16e+06u as=0p ps=0u w=1e+06u l=300000u
X26 a_24681_969# a_22547_1701# Y[3].t3 a_1596_n2079# sky130_fd_pr__nfet_01v8 ad=5.8e+11p pd=4.58e+06u as=0p ps=0u w=2e+06u l=300000u
X27 Y[7].t0 a_949_n3236.t8 a_948_n4635# a_1596_n2079# sky130_fd_pr__nfet_01v8 ad=0p pd=0u as=5.8e+11p ps=4.58e+06u w=2e+06u l=300000u
X28 a_17842_n1579# B[5].t0 VSS.t139 a_1596_n2079# sky130_fd_pr__nfet_01v8 ad=5.8e+11p pd=4.58e+06u as=0p ps=0u w=2e+06u l=300000u
X29 a_21232_4224# a_20642_4661# VDD.t325 w_20488_4599# sky130_fd_pr__pfet_01v8 ad=5.8e+11p pd=5.16e+06u as=0p ps=0u w=1e+06u l=300000u
X30 a_17342_2390# a_15989_1697# VDD.t484 w_15407_2328# sky130_fd_pr__pfet_01v8 ad=5.8e+11p pd=5.16e+06u as=0p ps=0u w=1e+06u l=300000u
X31 VDD.t117 a_14084_4657# a_14674_4220# w_13930_4595# sky130_fd_pr__pfet_01v8 ad=0p pd=0u as=5.8e+11p ps=5.16e+06u w=1e+06u l=300000u
X32 VSS.t2 a_9042_n1101# a_8613_n1731# a_1596_n2079# sky130_fd_pr__nfet_01v8 ad=0p pd=0u as=2.9e+11p ps=2.58e+06u w=1e+06u l=300000u
X33 a_9050_n3907# a_9462_n3933# a_7507_n3240.t2 w_6576_n3276# sky130_fd_pr__pfet_01v8 ad=4.06e+12p pd=3.206e+07u as=0p ps=0u w=2e+06u l=300000u
X34 a_7801_2375# a_4650_3958.t4 a_7564_3012# a_1596_n2079# sky130_fd_pr__nfet_01v8 ad=5.8e+11p pd=4.58e+06u as=5.8e+11p ps=4.58e+06u w=2e+06u l=300000u
X35 VDD.t34 A[2].t0 a_16283_1671# w_15407_2328# sky130_fd_pr__pfet_01v8 ad=0p pd=0u as=5.8e+11p ps=5.16e+06u w=1e+06u l=300000u
X36 VSS.t101 a_4650_3958.t5 a_11589_970# a_1596_n2079# sky130_fd_pr__nfet_01v8 ad=0p pd=0u as=5.8e+11p ps=4.58e+06u w=2e+06u l=300000u
X37 a_4722_1705# a_2942_1705.t8 VDD.t432 w_2360_2336# sky130_fd_pr__pfet_01v8 ad=4.06e+12p pd=3.206e+07u as=0p ps=0u w=2e+06u l=300000u
X38 a_21246_2574# a_20656_3011# VDD.t379 w_20502_2949# sky130_fd_pr__pfet_01v8 ad=5.8e+11p pd=5.16e+06u as=0p ps=0u w=1e+06u l=300000u
X39 VDD.t124 B[2].t0 a_15444_2390# w_15407_2328# sky130_fd_pr__pfet_01v8 ad=0p pd=0u as=5.8e+11p ps=5.16e+06u w=1e+06u l=300000u
X40 a_2492_n3903# A[7].t0 VDD.t18 w_18_n3272# sky130_fd_pr__pfet_01v8 ad=4.06e+12p pd=3.206e+07u as=0p ps=0u w=2e+06u l=300000u
X41 a_9455_1702.t2 a_8910_2395# a_9337_1702# w_8873_2333# sky130_fd_pr__pfet_01v8 ad=0p pd=0u as=4.06e+12p ps=3.206e+07u w=2e+06u l=300000u
X42 a_7471_n1727# a_7900_n1097# a_7606_n1071# w_7377_n1716# sky130_fd_pr__pfet_01v8 ad=1.16e+12p pd=9.16e+06u as=1.74e+12p ps=1.374e+07u w=2e+06u l=300000u
X43 a_988_n1093# a_2055_n1727# VDD.t198 w_1961_n1716# sky130_fd_pr__pfet_01v8 ad=5.8e+11p pd=5.16e+06u as=0p ps=0u w=1e+06u l=300000u
X44 VDD.t86 A[4].t0 a_21557_n3206# w_19623_n3268# sky130_fd_pr__pfet_01v8 ad=0p pd=0u as=5.8e+11p ps=5.16e+06u w=1e+06u l=300000u
X45 a_712_n4635# a_1006_n3929# Y[7].t7 a_1596_n2079# sky130_fd_pr__nfet_01v8 ad=1.16e+12p pd=9.16e+06u as=0p ps=0u w=2e+06u l=300000u
X46 a_10659_n973# B[6].t0 VDD.t314 w_10565_n1009# sky130_fd_pr__pfet_01v8 ad=8.7e+11p pd=7.74e+06u as=0p ps=0u w=1e+06u l=300000u
X47 a_7152_n3907# a_6612_n3214# Y[6].t2 w_6576_n3276# sky130_fd_pr__pfet_01v8 ad=4.06e+12p pd=3.206e+07u as=0p ps=0u w=2e+06u l=300000u
X48 VDD.t253 B[0].t2 a_1037_4665# w_883_4603# sky130_fd_pr__pfet_01v8 ad=0p pd=0u as=8.7e+11p ps=7.74e+06u w=1e+06u l=300000u
X49 VDD.t297 B[7].t0 a_4087_n2619# w_3993_n2655# sky130_fd_pr__pfet_01v8 ad=0p pd=0u as=8.7e+11p ps=7.74e+06u w=1e+06u l=300000u
X50 a_2942_1705.t6 a_3236_1679# a_2824_1705# w_2360_2336# sky130_fd_pr__pfet_01v8 ad=0p pd=0u as=4.06e+12p ps=3.206e+07u w=2e+06u l=300000u
X51 VDD.t262 A[3].t0 a_20651_1407# w_20497_1345# sky130_fd_pr__pfet_01v8 ad=0p pd=0u as=8.7e+11p ps=7.74e+06u w=1e+06u l=300000u
X52 a_9875_4534# a_8140_4225# VDD.t239 w_9721_4472# sky130_fd_pr__pfet_01v8 ad=1.74e+12p pd=1.374e+07u as=0p ps=0u w=2e+06u l=300000u
X53 VDD.t17 a_11163_3955.t5 a_17769_1697# w_15407_2328# sky130_fd_pr__pfet_01v8 ad=0p pd=0u as=4.06e+12p ps=3.206e+07u w=2e+06u l=300000u
X54 VDD.t197 a_2055_n1727# a_988_n1093# w_1961_n1716# sky130_fd_pr__pfet_01v8 ad=0p pd=0u as=0p ps=0u w=1e+06u l=300000u
X55 a_21557_n3206# A[4].t1 VDD.t10 w_19623_n3268# sky130_fd_pr__pfet_01v8 ad=0p pd=0u as=0p ps=0u w=1e+06u l=300000u
X56 VDD.t224 B[0].t3 a_1051_3015# w_897_2953# sky130_fd_pr__pfet_01v8 ad=0p pd=0u as=8.7e+11p ps=7.74e+06u w=1e+06u l=300000u
X57 Y[6].t1 a_6612_n3214# a_7152_n3907# w_6576_n3276# sky130_fd_pr__pfet_01v8 ad=0p pd=0u as=0p ps=0u w=2e+06u l=300000u
X58 VDD.t204 B[6].t1 a_9462_n3933# w_6576_n3276# sky130_fd_pr__pfet_01v8 ad=0p pd=0u as=5.8e+11p ps=5.16e+06u w=1e+06u l=300000u
X59 VDD.t65 a_9455_1702.t9 a_10808_2395# w_8873_2333# sky130_fd_pr__pfet_01v8 ad=0p pd=0u as=5.8e+11p ps=5.16e+06u w=1e+06u l=300000u
X60 a_4087_n2619# B[7].t1 VDD.t159 w_3993_n2655# sky130_fd_pr__pfet_01v8 ad=0p pd=0u as=0p ps=0u w=1e+06u l=300000u
X61 a_16283_1671# A[2].t1 VSS.t44 a_1596_n2079# sky130_fd_pr__nfet_01v8 ad=2.9e+11p pd=2.58e+06u as=0p ps=0u w=1e+06u l=300000u
X62 VDD.t136 a_4101_n969# a_2130_n1097# w_4007_n1005# sky130_fd_pr__pfet_01v8 ad=0p pd=0u as=0p ps=0u w=1e+06u l=300000u
X63 a_13686_n3902# a_14041_n3235# VDD.t6 w_13110_n3271# sky130_fd_pr__pfet_01v8 ad=4.06e+12p pd=3.206e+07u as=0p ps=0u w=2e+06u l=300000u
X64 a_15871_1697.t5 B[2].t1 VDD.t125 w_15407_2328# sky130_fd_pr__pfet_01v8 ad=0p pd=0u as=0p ps=0u w=2e+06u l=300000u
X65 a_6612_n3214# a_6610_n3511.t4 VDD.t92 w_6576_n3276# sky130_fd_pr__pfet_01v8 ad=5.8e+11p pd=5.16e+06u as=0p ps=0u w=1e+06u l=300000u
X66 VDD.t443 a_17697_3950.t4 a_20651_1407# w_20497_1345# sky130_fd_pr__pfet_01v8 ad=0p pd=0u as=0p ps=0u w=1e+06u l=300000u
X67 VDD.t407 a_17193_n968# a_15222_n1096# w_17099_n1004# sky130_fd_pr__pfet_01v8 ad=0p pd=0u as=5.8e+11p ps=5.16e+06u w=1e+06u l=300000u
X68 Y[0].t0 a_4295_2398# a_4840_973# a_1596_n2079# sky130_fd_pr__nfet_01v8 ad=0p pd=0u as=1.16e+12p ps=9.16e+06u w=2e+06u l=300000u
X69 a_988_n1093# a_2055_n1727# VDD.t196 w_1961_n1716# sky130_fd_pr__pfet_01v8 ad=0p pd=0u as=0p ps=0u w=1e+06u l=300000u
X70 VDD.t11 A[4].t2 a_21557_n3206# w_19623_n3268# sky130_fd_pr__pfet_01v8 ad=0p pd=0u as=0p ps=0u w=1e+06u l=300000u
X71 VDD.t12 A[4].t3 a_22097_n3899# w_19623_n3268# sky130_fd_pr__pfet_01v8 ad=0p pd=0u as=4.06e+12p ps=3.206e+07u w=2e+06u l=300000u
X72 VDD.t50 A[6].t0 a_8510_n3214# w_6576_n3276# sky130_fd_pr__pfet_01v8 ad=0p pd=0u as=5.8e+11p ps=5.16e+06u w=1e+06u l=300000u
X73 VDD.t181 a_1627_4228# a_3362_4537# w_3208_4475# sky130_fd_pr__pfet_01v8 ad=0p pd=0u as=0p ps=0u w=2e+06u l=300000u
X74 a_17769_1697# a_18181_1671# Y[2].t6 w_15407_2328# sky130_fd_pr__pfet_01v8 ad=0p pd=0u as=0p ps=0u w=2e+06u l=300000u
X75 a_7152_n3907# a_7564_n3933# Y[6].t6 w_6576_n3276# sky130_fd_pr__pfet_01v8 ad=0p pd=0u as=0p ps=0u w=2e+06u l=300000u
X76 a_9462_n3933# B[6].t2 VDD.t319 w_6576_n3276# sky130_fd_pr__pfet_01v8 ad=0p pd=0u as=0p ps=0u w=1e+06u l=300000u
X77 a_4101_n969# B[7].t2 VDD.t160 w_4007_n1005# sky130_fd_pr__pfet_01v8 ad=8.7e+11p pd=7.74e+06u as=0p ps=0u w=1e+06u l=300000u
X78 a_19657_n3503.t3 a_23991_4537# VDD.t261 w_23955_4475# sky130_fd_pr__pfet_01v8 ad=0p pd=0u as=0p ps=0u w=1e+06u l=300000u
X79 a_1046_1411# A[0].t0 VDD.t450 w_892_1349# sky130_fd_pr__pfet_01v8 ad=8.7e+11p pd=7.74e+06u as=0p ps=0u w=1e+06u l=300000u
X80 a_17193_n968# A[5].t0 VDD.t268 w_17099_n1004# sky130_fd_pr__pfet_01v8 ad=8.7e+11p pd=7.74e+06u as=0p ps=0u w=1e+06u l=300000u
X81 VDD.t403 a_913_n1723# carry_out.t3 w_819_n1712# sky130_fd_pr__pfet_01v8 ad=0p pd=0u as=0p ps=0u w=1e+06u l=300000u
X82 a_5134_1679# carry_in.t2 VDD.t362 w_2360_2336# sky130_fd_pr__pfet_01v8 ad=0p pd=0u as=0p ps=0u w=1e+06u l=300000u
X83 VDD.t61 a_52_n3507.t6 a_4087_n2619# w_3993_n2655# sky130_fd_pr__pfet_01v8 ad=0p pd=0u as=0p ps=0u w=1e+06u l=300000u
X84 a_23706_n965# A[4].t4 VDD.t386 w_23612_n1001# sky130_fd_pr__pfet_01v8 ad=0p pd=0u as=0p ps=0u w=1e+06u l=300000u
X85 VSS.t90 a_15576_n1096# a_15147_n1726# a_1596_n2079# sky130_fd_pr__nfet_01v8 ad=0p pd=0u as=2.9e+11p ps=2.58e+06u w=1e+06u l=300000u
X86 VDD.t5 a_14041_n3235# a_13686_n3902# w_13110_n3271# sky130_fd_pr__pfet_01v8 ad=0p pd=0u as=0p ps=0u w=2e+06u l=300000u
X87 VDD.t338 a_4650_3958.t6 a_7559_1408# w_7405_1346# sky130_fd_pr__pfet_01v8 ad=0p pd=0u as=0p ps=0u w=1e+06u l=300000u
X88 a_17828_n3229# B[5].t1 VSS.t73 a_1596_n2079# sky130_fd_pr__nfet_01v8 ad=5.8e+11p pd=4.58e+06u as=0p ps=0u w=2e+06u l=300000u
X89 VDD.t442 A[0].t1 a_3236_1679# w_2360_2336# sky130_fd_pr__pfet_01v8 ad=0p pd=0u as=5.8e+11p ps=5.16e+06u w=1e+06u l=300000u
X90 VDD.t111 a_4650_3958.t7 a_11235_1702# w_8873_2333# sky130_fd_pr__pfet_01v8 ad=0p pd=0u as=0p ps=0u w=2e+06u l=300000u
X91 VDD.t84 a_22849_4533# a_23113_3950# w_22813_4471# sky130_fd_pr__pfet_01v8 ad=0p pd=0u as=5.8e+11p ps=5.16e+06u w=1e+06u l=300000u
X92 VDD.t225 B[0].t4 a_2397_2398# w_2360_2336# sky130_fd_pr__pfet_01v8 ad=0p pd=0u as=5.8e+11p ps=5.16e+06u w=1e+06u l=300000u
X93 a_22097_n3899# A[4].t5 VDD.t387 w_19623_n3268# sky130_fd_pr__pfet_01v8 ad=0p pd=0u as=0p ps=0u w=2e+06u l=300000u
X94 Y[6].t5 a_7564_n3933# a_7152_n3907# w_6576_n3276# sky130_fd_pr__pfet_01v8 ad=0p pd=0u as=0p ps=0u w=2e+06u l=300000u
X95 a_4504_4541# a_3508_3954# VDD.t207 w_4350_4479# sky130_fd_pr__pfet_01v8 ad=1.74e+12p pd=1.374e+07u as=0p ps=0u w=2e+06u l=300000u
X96 VDD.t212 B[2].t2 a_15444_2390# w_15407_2328# sky130_fd_pr__pfet_01v8 ad=0p pd=0u as=0p ps=0u w=1e+06u l=300000u
X97 VDD.t248 A[3].t1 a_22429_1701.t8 w_21965_2332# sky130_fd_pr__pfet_01v8 ad=0p pd=0u as=0p ps=0u w=2e+06u l=300000u
X98 VDD.t347 B[1].t0 a_7550_4662# w_7396_4600# sky130_fd_pr__pfet_01v8 ad=0p pd=0u as=8.7e+11p ps=7.74e+06u w=1e+06u l=300000u
X99 VDD.t383 a_14098_3007# a_14688_2570# w_13944_2945# sky130_fd_pr__pfet_01v8 ad=0p pd=0u as=5.8e+11p ps=5.16e+06u w=1e+06u l=300000u
X100 Y[0].t3 a_4295_2398# a_4722_1705# w_2360_2336# sky130_fd_pr__pfet_01v8 ad=0p pd=0u as=0p ps=0u w=2e+06u l=300000u
X101 a_17833_n4833# a_13144_n3506.t4 VSS.t80 a_1596_n2079# sky130_fd_pr__nfet_01v8 ad=5.8e+11p pd=4.58e+06u as=0p ps=0u w=2e+06u l=300000u
X102 a_17179_n2618# a_13144_n3506.t5 a_17828_n3229# a_1596_n2079# sky130_fd_pr__nfet_01v8 ad=5.8e+11p pd=4.58e+06u as=0p ps=0u w=2e+06u l=300000u
X103 a_7152_n3907# a_6610_n3511.t5 VDD.t340 w_6576_n3276# sky130_fd_pr__pfet_01v8 ad=0p pd=0u as=0p ps=0u w=2e+06u l=300000u
X104 VSS.t98 a_17179_n2618# a_14434_n1092# a_1596_n2079# sky130_fd_pr__nfet_01v8 ad=0p pd=0u as=2.9e+11p ps=2.58e+06u w=1e+06u l=300000u
X105 a_11017_4538# a_10021_3951# VDD.t26 w_10863_4476# sky130_fd_pr__pfet_01v8 ad=1.74e+12p pd=1.374e+07u as=0p ps=0u w=2e+06u l=300000u
X106 VDD.t131 a_949_n3236.t9 a_594_n3903# w_18_n3272# sky130_fd_pr__pfet_01v8 ad=0p pd=0u as=0p ps=0u w=2e+06u l=300000u
X107 VDD.t343 B[4].t1 a_22097_n3899# w_19623_n3268# sky130_fd_pr__pfet_01v8 ad=0p pd=0u as=0p ps=0u w=2e+06u l=300000u
X108 VDD.t190 B[6].t3 a_9050_n3907# w_6576_n3276# sky130_fd_pr__pfet_01v8 ad=0p pd=0u as=0p ps=0u w=2e+06u l=300000u
X109 VDD.t206 a_3508_3954# a_4504_4541# w_4350_4479# sky130_fd_pr__pfet_01v8 ad=0p pd=0u as=0p ps=0u w=2e+06u l=300000u
X110 a_9455_1702.t1 a_8910_2395# a_9337_1702# w_8873_2333# sky130_fd_pr__pfet_01v8 ad=0p pd=0u as=0p ps=0u w=2e+06u l=300000u
X111 a_2942_973# a_3236_1679# VSS.t118 a_1596_n2079# sky130_fd_pr__nfet_01v8 ad=1.16e+12p pd=9.16e+06u as=0p ps=0u w=2e+06u l=300000u
X112 a_10645_n2623# B[6].t4 VDD.t191 w_10551_n2659# sky130_fd_pr__pfet_01v8 ad=8.7e+11p pd=7.74e+06u as=0p ps=0u w=1e+06u l=300000u
X113 VDD.t490 a_1037_4665# a_1627_4228# w_883_4603# sky130_fd_pr__pfet_01v8 ad=0p pd=0u as=5.8e+11p ps=5.16e+06u w=1e+06u l=300000u
X114 a_10021_3951# a_9757_4534# VSS.t79 a_1596_n2079# sky130_fd_pr__nfet_01v8 ad=2.9e+11p pd=2.58e+06u as=0p ps=0u w=1e+06u l=300000u
X115 VDD.t112 a_4650_3958.t8 a_7564_3012# w_7410_2950# sky130_fd_pr__pfet_01v8 ad=0p pd=0u as=8.7e+11p ps=7.74e+06u w=1e+06u l=300000u
X116 VDD.t451 a_17433_4533# a_17697_3950.t3 w_17397_4471# sky130_fd_pr__pfet_01v8 ad=0p pd=0u as=0p ps=0u w=1e+06u l=300000u
X117 a_22509_n3925# B[4].t2 VSS.t105 a_1596_n2079# sky130_fd_pr__nfet_01v8 ad=2.9e+11p pd=2.58e+06u as=0p ps=0u w=1e+06u l=300000u
X118 a_17184_n4222# A[5].t1 a_17833_n4833# a_1596_n2079# sky130_fd_pr__nfet_01v8 ad=5.8e+11p pd=4.58e+06u as=0p ps=0u w=2e+06u l=300000u
X119 a_2824_1705# B[0].t5 VDD.t358 w_2360_2336# sky130_fd_pr__pfet_01v8 ad=0p pd=0u as=0p ps=0u w=2e+06u l=300000u
X120 a_22097_n3899# B[4].t3 VDD.t280 w_19623_n3268# sky130_fd_pr__pfet_01v8 ad=0p pd=0u as=0p ps=0u w=2e+06u l=300000u
X121 a_9050_n3907# B[6].t5 VDD.t171 w_6576_n3276# sky130_fd_pr__pfet_01v8 ad=0p pd=0u as=0p ps=0u w=2e+06u l=300000u
X122 VSS.t30 A[7].t1 a_1952_n3210# a_1596_n2079# sky130_fd_pr__nfet_01v8 ad=0p pd=0u as=2.9e+11p ps=2.58e+06u w=1e+06u l=300000u
X123 VDD.t334 a_4092_n4223# a_2484_n1097# w_3998_n4259# sky130_fd_pr__pfet_01v8 ad=0p pd=0u as=5.8e+11p ps=5.16e+06u w=1e+06u l=300000u
X124 a_1046_1411# A[0].t2 VDD.t201 w_892_1349# sky130_fd_pr__pfet_01v8 ad=0p pd=0u as=0p ps=0u w=1e+06u l=300000u
X125 a_2190_n1071# a_2130_n1097# VDD.t357 w_1961_n1716# sky130_fd_pr__pfet_01v8 ad=1.74e+12p pd=1.374e+07u as=0p ps=0u w=2e+06u l=300000u
X126 VDD.t233 A[1].t2 a_9749_1676# w_8873_2333# sky130_fd_pr__pfet_01v8 ad=0p pd=0u as=5.8e+11p ps=5.16e+06u w=1e+06u l=300000u
X127 VSS.t6 B[1].t1 a_7787_4025# a_1596_n2079# sky130_fd_pr__nfet_01v8 ad=0p pd=0u as=5.8e+11p ps=4.58e+06u w=2e+06u l=300000u
X128 a_15584_n3902.t5 A[5].t2 VDD.t236 w_13110_n3271# sky130_fd_pr__pfet_01v8 ad=0p pd=0u as=0p ps=0u w=2e+06u l=300000u
X129 a_9757_4534# a_8149_971# a_9875_4534# w_9721_4472# sky130_fd_pr__pfet_01v8 ad=1.16e+12p pd=9.16e+06u as=0p ps=0u w=2e+06u l=300000u
X130 a_15871_1697.t11 A[2].t2 VDD.t146 w_15407_2328# sky130_fd_pr__pfet_01v8 ad=0p pd=0u as=0p ps=0u w=2e+06u l=300000u
X131 a_13804_n4634# a_14098_n3928# Y[5].t1 a_1596_n2079# sky130_fd_pr__nfet_01v8 ad=1.16e+12p pd=9.16e+06u as=0p ps=0u w=2e+06u l=300000u
X132 a_14080_n1092# a_15147_n1726# VDD.t211 w_15053_n1715# sky130_fd_pr__pfet_01v8 ad=5.8e+11p pd=5.16e+06u as=0p ps=0u w=1e+06u l=300000u
X133 a_15989_1697# a_15444_2390# a_15871_1697.t2 w_15407_2328# sky130_fd_pr__pfet_01v8 ad=1.74e+12p pd=1.374e+07u as=0p ps=0u w=2e+06u l=300000u
X134 a_2904_n3929# B[7].t3 VDD.t287 w_18_n3272# sky130_fd_pr__pfet_01v8 ad=5.8e+11p pd=5.16e+06u as=0p ps=0u w=1e+06u l=300000u
X135 a_20199_n3899# a_19657_n3503.t6 VDD.t415 w_19623_n3268# sky130_fd_pr__pfet_01v8 ad=4.06e+12p pd=3.206e+07u as=0p ps=0u w=2e+06u l=300000u
X136 a_23692_n2615# B[4].t4 VDD.t281 w_23598_n2651# sky130_fd_pr__pfet_01v8 ad=8.7e+11p pd=7.74e+06u as=0p ps=0u w=1e+06u l=300000u
X137 a_20642_4661# A[3].t2 VDD.t249 w_20488_4599# sky130_fd_pr__pfet_01v8 ad=8.7e+11p pd=7.74e+06u as=0p ps=0u w=1e+06u l=300000u
X138 VDD.t172 B[6].t6 a_9050_n3907# w_6576_n3276# sky130_fd_pr__pfet_01v8 ad=0p pd=0u as=0p ps=0u w=2e+06u l=300000u
X139 a_15871_1697.t1 a_15444_2390# a_15989_1697# w_15407_2328# sky130_fd_pr__pfet_01v8 ad=0p pd=0u as=0p ps=0u w=2e+06u l=300000u
X140 a_24327_1701.t2 a_24739_1675# Y[3].t2 w_21965_2332# sky130_fd_pr__pfet_01v8 ad=0p pd=0u as=0p ps=0u w=2e+06u l=300000u
X141 VSS.t40 a_4101_n969# a_2130_n1097# a_1596_n2079# sky130_fd_pr__nfet_01v8 ad=0p pd=0u as=2.9e+11p ps=2.58e+06u w=1e+06u l=300000u
X142 a_594_n3903# a_1006_n3929# Y[7].t6 w_18_n3272# sky130_fd_pr__pfet_01v8 ad=0p pd=0u as=0p ps=0u w=2e+06u l=300000u
X143 a_14084_4657# A[2].t3 VDD.t147 w_13930_4595# sky130_fd_pr__pfet_01v8 ad=8.7e+11p pd=7.74e+06u as=0p ps=0u w=1e+06u l=300000u
X144 VDD.t220 a_22547_1701# a_24327_1701.t5 w_21965_2332# sky130_fd_pr__pfet_01v8 ad=0p pd=0u as=0p ps=0u w=2e+06u l=300000u
X145 a_22429_1701.t5 a_22002_2394# a_22547_1701# w_21965_2332# sky130_fd_pr__pfet_01v8 ad=0p pd=0u as=1.74e+12p ps=1.374e+07u w=2e+06u l=300000u
X146 VDD.t210 a_15147_n1726# a_14080_n1092# w_15053_n1715# sky130_fd_pr__pfet_01v8 ad=0p pd=0u as=0p ps=0u w=1e+06u l=300000u
X147 VSS.t135 a_21232_4224# a_22849_4533# a_1596_n2079# sky130_fd_pr__nfet_01v8 ad=0p pd=0u as=2.9e+11p ps=2.58e+06u w=1e+06u l=300000u
X148 VSS.t117 a_19659_n3206# a_20317_n4631# a_1596_n2079# sky130_fd_pr__nfet_01v8 ad=0p pd=0u as=1.16e+12p ps=9.16e+06u w=2e+06u l=300000u
X149 a_16555_3946# a_16291_4529# VDD.t21 w_16255_4467# sky130_fd_pr__pfet_01v8 ad=5.8e+11p pd=5.16e+06u as=0p ps=0u w=1e+06u l=300000u
X150 Y[3].t5 a_23900_2394# a_24445_969# a_1596_n2079# sky130_fd_pr__nfet_01v8 ad=0p pd=0u as=1.16e+12p ps=9.16e+06u w=2e+06u l=300000u
X151 a_24739_1675# a_17697_3950.t5 VSS.t43 a_1596_n2079# sky130_fd_pr__nfet_01v8 ad=2.9e+11p pd=2.58e+06u as=0p ps=0u w=1e+06u l=300000u
X152 VDD.t282 B[4].t5 a_23692_n2615# w_23598_n2651# sky130_fd_pr__pfet_01v8 ad=0p pd=0u as=0p ps=0u w=1e+06u l=300000u
X153 a_6610_n3511.t3 a_14005_n1722# VDD.t390 w_13911_n1711# sky130_fd_pr__pfet_01v8 ad=0p pd=0u as=0p ps=0u w=1e+06u l=300000u
X154 VDD.t175 a_7559_1408# a_8149_971# w_7405_1346# sky130_fd_pr__pfet_01v8 ad=0p pd=0u as=5.8e+11p ps=5.16e+06u w=1e+06u l=300000u
X155 a_21232_4224# a_20642_4661# VDD.t324 w_20488_4599# sky130_fd_pr__pfet_01v8 ad=0p pd=0u as=0p ps=0u w=1e+06u l=300000u
X156 a_17179_n2618# B[5].t2 VDD.t255 w_17085_n2654# sky130_fd_pr__pfet_01v8 ad=8.7e+11p pd=7.74e+06u as=0p ps=0u w=1e+06u l=300000u
X157 VDD.t275 a_9757_4534# a_10021_3951# w_9721_4472# sky130_fd_pr__pfet_01v8 ad=0p pd=0u as=5.8e+11p ps=5.16e+06u w=1e+06u l=300000u
X158 a_10650_n4227# a_6610_n3511.t6 VDD.t341 w_10556_n4263# sky130_fd_pr__pfet_01v8 ad=8.7e+11p pd=7.74e+06u as=0p ps=0u w=1e+06u l=300000u
X159 a_21232_4224# a_20642_4661# VSS.t96 a_1596_n2079# sky130_fd_pr__nfet_01v8 ad=2.9e+11p pd=2.58e+06u as=0p ps=0u w=1e+06u l=300000u
X160 a_23113_3950# a_22849_4533# VSS.t22 a_1596_n2079# sky130_fd_pr__nfet_01v8 ad=2.9e+11p pd=2.58e+06u as=0p ps=0u w=1e+06u l=300000u
X161 VDD.t176 B[3].t1 a_20656_3011# w_20502_2949# sky130_fd_pr__pfet_01v8 ad=0p pd=0u as=8.7e+11p ps=7.74e+06u w=1e+06u l=300000u
X162 Y[7].t5 a_1006_n3929# a_594_n3903# w_18_n3272# sky130_fd_pr__pfet_01v8 ad=0p pd=0u as=0p ps=0u w=2e+06u l=300000u
X163 a_7606_n1071# a_7900_n1097# a_7471_n1727# w_7377_n1716# sky130_fd_pr__pfet_01v8 ad=0p pd=0u as=0p ps=0u w=2e+06u l=300000u
X164 a_20653_n1063# a_20947_n1089# a_20518_n1719# w_20424_n1708# sky130_fd_pr__pfet_01v8 ad=0p pd=0u as=1.16e+12p ps=9.16e+06u w=2e+06u l=300000u
X165 VDD.t373 a_10659_n973# a_8688_n1101# w_10565_n1009# sky130_fd_pr__pfet_01v8 ad=0p pd=0u as=5.8e+11p ps=5.16e+06u w=1e+06u l=300000u
X166 a_1636_974# a_1046_1411# VSS.t21 a_1596_n2079# sky130_fd_pr__nfet_01v8 ad=2.9e+11p pd=2.58e+06u as=0p ps=0u w=1e+06u l=300000u
X167 a_11589_970# a_9455_1702.t10 Y[1].t0 a_1596_n2079# sky130_fd_pr__nfet_01v8 ad=0p pd=0u as=0p ps=0u w=2e+06u l=300000u
X168 a_20611_n3925# a_20554_n3232.t8 VDD.t318 w_19623_n3268# sky130_fd_pr__pfet_01v8 ad=5.8e+11p pd=5.16e+06u as=0p ps=0u w=1e+06u l=300000u
X169 a_14080_n1092# a_15147_n1726# VDD.t209 w_15053_n1715# sky130_fd_pr__pfet_01v8 ad=0p pd=0u as=0p ps=0u w=1e+06u l=300000u
X170 VDD.t247 a_4386_4541# a_4650_3958.t3 w_4350_4479# sky130_fd_pr__pfet_01v8 ad=0p pd=0u as=0p ps=0u w=1e+06u l=300000u
X171 a_24109_4537# a_21246_2574# a_23991_4537# w_23955_4475# sky130_fd_pr__pfet_01v8 ad=1.74e+12p pd=1.374e+07u as=1.16e+12p ps=9.16e+06u w=2e+06u l=300000u
X172 a_20879_4024# A[3].t3 a_20642_4661# a_1596_n2079# sky130_fd_pr__nfet_01v8 ad=5.8e+11p pd=4.58e+06u as=5.8e+11p ps=4.58e+06u w=2e+06u l=300000u
X173 a_20553_n4631# a_19657_n3503.t7 VSS.t103 a_1596_n2079# sky130_fd_pr__nfet_01v8 ad=5.8e+11p pd=4.58e+06u as=0p ps=0u w=2e+06u l=300000u
X174 VDD.t128 A[7].t2 a_4092_n4223# w_3998_n4259# sky130_fd_pr__pfet_01v8 ad=0p pd=0u as=8.7e+11p ps=7.74e+06u w=1e+06u l=300000u
X175 a_22967_4533# a_21241_970# a_22849_4533# w_22813_4471# sky130_fd_pr__pfet_01v8 ad=1.74e+12p pd=1.374e+07u as=1.16e+12p ps=9.16e+06u w=2e+06u l=300000u
X176 VDD.t234 A[1].t3 a_9337_1702# w_8873_2333# sky130_fd_pr__pfet_01v8 ad=0p pd=0u as=0p ps=0u w=2e+06u l=300000u
X177 a_14683_966# a_14093_1403# VDD.t158 w_13939_1341# sky130_fd_pr__pfet_01v8 ad=5.8e+11p pd=5.16e+06u as=0p ps=0u w=1e+06u l=300000u
X178 a_23692_n2615# B[4].t6 VDD.t309 w_23598_n2651# sky130_fd_pr__pfet_01v8 ad=0p pd=0u as=0p ps=0u w=1e+06u l=300000u
X179 VDD.t392 a_14005_n1722# a_6610_n3511.t2 w_13911_n1711# sky130_fd_pr__pfet_01v8 ad=0p pd=0u as=0p ps=0u w=1e+06u l=300000u
X180 a_8140_4225# a_7550_4662# VDD.t230 w_7396_4600# sky130_fd_pr__pfet_01v8 ad=5.8e+11p pd=5.16e+06u as=0p ps=0u w=1e+06u l=300000u
X181 a_9455_1702.t7 a_9749_1676# a_9337_1702# w_8873_2333# sky130_fd_pr__pfet_01v8 ad=0p pd=0u as=0p ps=0u w=2e+06u l=300000u
X182 VDD.t182 a_13144_n3506.t6 a_17179_n2618# w_17085_n2654# sky130_fd_pr__pfet_01v8 ad=0p pd=0u as=0p ps=0u w=1e+06u l=300000u
X183 VDD.t202 a_6610_n3511.t7 a_10650_n4227# w_10556_n4263# sky130_fd_pr__pfet_01v8 ad=0p pd=0u as=0p ps=0u w=1e+06u l=300000u
X184 a_21795_n1067# a_22089_n1093# a_21660_n1723# w_21566_n1712# sky130_fd_pr__pfet_01v8 ad=1.74e+12p pd=1.374e+07u as=1.16e+12p ps=9.16e+06u w=2e+06u l=300000u
X185 a_22849_4533# a_21241_970# a_22967_4533# w_22813_4471# sky130_fd_pr__pfet_01v8 ad=0p pd=0u as=0p ps=0u w=2e+06u l=300000u
X186 VDD.t164 B[1].t2 a_7564_3012# w_7410_2950# sky130_fd_pr__pfet_01v8 ad=0p pd=0u as=0p ps=0u w=1e+06u l=300000u
X187 VDD.t363 carry_in.t3 a_4722_1705# w_2360_2336# sky130_fd_pr__pfet_01v8 ad=0p pd=0u as=0p ps=0u w=2e+06u l=300000u
X188 a_9337_1702# B[1].t3 VDD.t303 w_8873_2333# sky130_fd_pr__pfet_01v8 ad=0p pd=0u as=0p ps=0u w=2e+06u l=300000u
X189 a_24739_1675# a_17697_3950.t6 VDD.t145 w_21965_2332# sky130_fd_pr__pfet_01v8 ad=5.8e+11p pd=5.16e+06u as=0p ps=0u w=1e+06u l=300000u
X190 a_594_n3903# a_1006_n3929# Y[7].t4 w_18_n3272# sky130_fd_pr__pfet_01v8 ad=0p pd=0u as=0p ps=0u w=2e+06u l=300000u
X191 a_17769_1697# a_15989_1697# VDD.t487 w_15407_2328# sky130_fd_pr__pfet_01v8 ad=0p pd=0u as=0p ps=0u w=2e+06u l=300000u
X192 a_7471_n1727# a_7900_n1097# a_7606_n1071# w_7377_n1716# sky130_fd_pr__pfet_01v8 ad=0p pd=0u as=0p ps=0u w=2e+06u l=300000u
X193 a_20518_n1719# a_20947_n1089# a_20653_n1063# w_20424_n1708# sky130_fd_pr__pfet_01v8 ad=0p pd=0u as=0p ps=0u w=2e+06u l=300000u
X194 VDD.t463 a_20554_n3232.t9 a_20611_n3925# w_19623_n3268# sky130_fd_pr__pfet_01v8 ad=0p pd=0u as=0p ps=0u w=1e+06u l=300000u
X195 VDD.t165 a_7507_n3240.t8 a_7564_n3933# w_6576_n3276# sky130_fd_pr__pfet_01v8 ad=0p pd=0u as=5.8e+11p ps=5.16e+06u w=1e+06u l=300000u
X196 a_6610_n3511.t1 a_14005_n1722# VDD.t391 w_13911_n1711# sky130_fd_pr__pfet_01v8 ad=0p pd=0u as=0p ps=0u w=1e+06u l=300000u
X197 VDD.t219 a_22547_1701# a_23900_2394# w_21965_2332# sky130_fd_pr__pfet_01v8 ad=0p pd=0u as=5.8e+11p ps=5.16e+06u w=1e+06u l=300000u
X198 VDD.t74 a_14080_n1092# a_14140_n1066# w_13911_n1711# sky130_fd_pr__pfet_01v8 ad=0p pd=0u as=1.74e+12p ps=1.374e+07u w=2e+06u l=300000u
X199 a_1037_4665# A[0].t3 VDD.t454 w_883_4603# sky130_fd_pr__pfet_01v8 ad=0p pd=0u as=0p ps=0u w=1e+06u l=300000u
X200 a_2824_1705# A[0].t4 VDD.t40 w_2360_2336# sky130_fd_pr__pfet_01v8 ad=0p pd=0u as=0p ps=0u w=2e+06u l=300000u
X201 a_1046_1411# carry_in.t4 VDD.t364 w_892_1349# sky130_fd_pr__pfet_01v8 ad=0p pd=0u as=0p ps=0u w=1e+06u l=300000u
X202 a_17184_n4222# A[5].t3 VDD.t87 w_17090_n4258# sky130_fd_pr__pfet_01v8 ad=8.7e+11p pd=7.74e+06u as=0p ps=0u w=1e+06u l=300000u
X203 VDD.t502 a_1051_3015# a_1641_2578# w_897_2953# sky130_fd_pr__pfet_01v8 ad=0p pd=0u as=5.8e+11p ps=5.16e+06u w=1e+06u l=300000u
X204 a_10650_n4227# a_6610_n3511.t8 VDD.t203 w_10556_n4263# sky130_fd_pr__pfet_01v8 ad=0p pd=0u as=0p ps=0u w=1e+06u l=300000u
X205 a_21660_n1723# a_22089_n1093# a_21795_n1067# w_21566_n1712# sky130_fd_pr__pfet_01v8 ad=0p pd=0u as=0p ps=0u w=2e+06u l=300000u
X206 a_23697_n4219# a_19657_n3503.t8 VDD.t416 w_23603_n4255# sky130_fd_pr__pfet_01v8 ad=8.7e+11p pd=7.74e+06u as=0p ps=0u w=1e+06u l=300000u
X207 a_21735_n1093# a_23706_n965# VDD.t278 w_23612_n1001# sky130_fd_pr__pfet_01v8 ad=5.8e+11p pd=5.16e+06u as=0p ps=0u w=1e+06u l=300000u
X208 VDD.t129 A[7].t3 a_1952_n3210# w_18_n3272# sky130_fd_pr__pfet_01v8 ad=0p pd=0u as=5.8e+11p ps=5.16e+06u w=1e+06u l=300000u
X209 a_20611_n3925# a_20554_n3232.t10 VDD.t185 w_19623_n3268# sky130_fd_pr__pfet_01v8 ad=0p pd=0u as=0p ps=0u w=1e+06u l=300000u
X210 a_7564_n3933# a_7507_n3240.t9 VDD.t166 w_6576_n3276# sky130_fd_pr__pfet_01v8 ad=0p pd=0u as=0p ps=0u w=1e+06u l=300000u
X211 VDD.t186 A[7].t4 a_4101_n969# w_4007_n1005# sky130_fd_pr__pfet_01v8 ad=0p pd=0u as=0p ps=0u w=1e+06u l=300000u
X212 VDD.t256 B[5].t3 a_17193_n968# w_17099_n1004# sky130_fd_pr__pfet_01v8 ad=0p pd=0u as=0p ps=0u w=1e+06u l=300000u
X213 Y[1].t3 a_10808_2395# a_11235_1702# w_8873_2333# sky130_fd_pr__pfet_01v8 ad=0p pd=0u as=0p ps=0u w=2e+06u l=300000u
X214 carry_out.t2 a_913_n1723# VDD.t402 w_819_n1712# sky130_fd_pr__pfet_01v8 ad=0p pd=0u as=0p ps=0u w=1e+06u l=300000u
X215 VDD.t459 a_23692_n2615# a_20947_n1089# w_23598_n2651# sky130_fd_pr__pfet_01v8 ad=0p pd=0u as=5.8e+11p ps=5.16e+06u w=1e+06u l=300000u
X216 VDD.t195 B[1].t4 a_8910_2395# w_8873_2333# sky130_fd_pr__pfet_01v8 ad=0p pd=0u as=5.8e+11p ps=5.16e+06u w=1e+06u l=300000u
X217 a_8149_971# a_7559_1408# VSS.t50 a_1596_n2079# sky130_fd_pr__nfet_01v8 ad=2.9e+11p pd=2.58e+06u as=0p ps=0u w=1e+06u l=300000u
X218 a_14084_4657# B[2].t3 VDD.t213 w_13930_4595# sky130_fd_pr__pfet_01v8 ad=0p pd=0u as=0p ps=0u w=1e+06u l=300000u
X219 VDD.t444 a_17697_3950.t7 a_24327_1701.t11 w_21965_2332# sky130_fd_pr__pfet_01v8 ad=0p pd=0u as=0p ps=0u w=2e+06u l=300000u
X220 Y[4].t3 a_19659_n3206# a_20199_n3899# w_19623_n3268# sky130_fd_pr__pfet_01v8 ad=0p pd=0u as=0p ps=0u w=2e+06u l=300000u
X221 VSS.t25 a_15044_n3209# a_15702_n4634# a_1596_n2079# sky130_fd_pr__nfet_01v8 ad=0p pd=0u as=1.16e+12p ps=9.16e+06u w=2e+06u l=300000u
X222 a_11235_1702# a_11647_1676# Y[1].t7 w_8873_2333# sky130_fd_pr__pfet_01v8 ad=0p pd=0u as=0p ps=0u w=2e+06u l=300000u
X223 a_15282_n1070# a_15222_n1096# VDD.t307 w_15053_n1715# sky130_fd_pr__pfet_01v8 ad=0p pd=0u as=0p ps=0u w=2e+06u l=300000u
X224 a_16291_4529# a_14683_966# VSS.t7 a_1596_n2079# sky130_fd_pr__nfet_01v8 ad=2.9e+11p pd=2.58e+06u as=0p ps=0u w=1e+06u l=300000u
X225 a_22547_969# a_22841_1675# VSS.t138 a_1596_n2079# sky130_fd_pr__nfet_01v8 ad=1.16e+12p pd=9.16e+06u as=0p ps=0u w=2e+06u l=300000u
X226 VDD.t401 a_17184_n4222# a_15576_n1096# w_17090_n4258# sky130_fd_pr__pfet_01v8 ad=0p pd=0u as=5.8e+11p ps=5.16e+06u w=1e+06u l=300000u
X227 a_1641_2578# a_1051_3015# VSS.t159 a_1596_n2079# sky130_fd_pr__nfet_01v8 ad=2.9e+11p pd=2.58e+06u as=0p ps=0u w=1e+06u l=300000u
X228 a_8910_2395# B[1].t5 VDD.t134 w_8873_2333# sky130_fd_pr__pfet_01v8 ad=0p pd=0u as=0p ps=0u w=1e+06u l=300000u